@<TRIPOS>MOLECULE
Generated by mBuild
5 4 0 0 0
SMALL
NO_CHARGES

@<TRIPOS>ATOM
1 C   0.0000   0.0000   0.0000 C 1 RES   0.0000
2 H   1.1000   0.0000   0.0000 H 1 RES   0.0000
3 H  -1.1000   0.0000   0.0000 H 1 RES   0.0000
4 H   0.0000   1.1000   0.0000 H 1 RES   0.0000
5 H   0.0000  -1.1000   0.0000 H 1 RES   0.0000
@<TRIPOS>BOND
1 1 2 1
2 1 3 1
3 1 4 1
4 1 5 1
<@TRIPOS>
