@<TRIPOS>MOLECULE
Generated by mBuild
8 7 0 0 0
SMALL
NO_CHARGES

@<TRIPOS>ATOM
1 C   0.0000  -1.4000  -0.0000 C 1 RES   0.0000
2 H  -1.0700  -1.4000   0.0000 H 1 RES   0.0000
3 H   0.3570  -2.1690   0.6530 H 1 RES   0.0000
4 H   0.3570  -1.5810  -0.9930 H 1 RES   0.0000
5 C   0.0000   0.0000   0.0000 C 1 RES   0.0000
6 H   1.0700   0.0000   0.0000 H 1 RES   0.0000
7 H  -0.3570   0.7690   0.6530 H 1 RES   0.0000
8 H  -0.3570   0.1810  -0.9930 H 1 RES   0.0000
@<TRIPOS>BOND
1 1 2 1
2 1 3 1
3 1 4 1
4 1 5 1
5 5 6 1
6 5 7 1
7 5 8 1
<@TRIPOS>
