@<TRIPOS>MOLECULE
Generated by mBuild
13640 16640 0 0 0
SMALL
NO_CHARGES

@<TRIPOS>ATOM
1 O   1.1910   0.6880   6.3220 O 1 RES   0.0000
2 Si   1.1910   0.6880   0.0000 Si 1 RES   0.0000
3 O   1.1910   2.0630   0.4860 O 1 RES   0.0000
4 Si   1.1910   3.4390   0.9730 Si 1 RES   0.0000
5 O   2.3820   0.0000   0.4860 O 1 RES   0.0000
6 O   0.0000   0.0000   0.4860 O 1 RES   0.0000
7 O   1.1910   3.4390   2.4310 O 1 RES   0.0000
8 Si   1.1910   3.4390   3.8900 Si 1 RES   0.0000
9 O   1.1910   2.0630   4.3770 O 1 RES   0.0000
10 Si   1.1910   0.6880   4.8630 Si 1 RES   0.0000
11 O   2.3820   0.0000   4.3770 O 1 RES   0.0000
12 O   0.0000   0.0000   4.3770 O 1 RES   0.0000
13 Si   1.1910   0.6880   7.7810 Si 1 RES   0.0000
14 O   2.3820   0.0000   8.2670 O 1 RES   0.0000
15 O   0.0000   0.0000   8.2670 O 1 RES   0.0000
16 O   1.1910   2.0630   8.2670 O 1 RES   0.0000
17 Si   1.1910   3.4390   8.7530 Si 1 RES   0.0000
18 O   1.1910   3.4390  10.2120 O 1 RES   0.0000
19 O   5.9560   0.6880   6.3220 O 1 RES   0.0000
20 Si   5.9560   0.6880   0.0000 Si 1 RES   0.0000
21 O   5.9560   2.0630   0.4860 O 1 RES   0.0000
22 Si   5.9560   3.4390   0.9730 Si 1 RES   0.0000
23 O   7.1470   0.0000   0.4860 O 1 RES   0.0000
24 O   4.7650   0.0000   0.4860 O 1 RES   0.0000
25 O   5.9560   3.4390   2.4310 O 1 RES   0.0000
26 Si   5.9560   3.4390   3.8900 Si 1 RES   0.0000
27 O   5.9560   2.0630   4.3770 O 1 RES   0.0000
28 Si   5.9560   0.6880   4.8630 Si 1 RES   0.0000
29 O   7.1470   0.0000   4.3770 O 1 RES   0.0000
30 O   4.7650   0.0000   4.3770 O 1 RES   0.0000
31 Si   5.9560   0.6880   7.7810 Si 1 RES   0.0000
32 O   7.1470   0.0000   8.2670 O 1 RES   0.0000
33 O   4.7650   0.0000   8.2670 O 1 RES   0.0000
34 O   5.9560   2.0630   8.2670 O 1 RES   0.0000
35 Si   5.9560   3.4390   8.7530 Si 1 RES   0.0000
36 O   5.9560   3.4390  10.2120 O 1 RES   0.0000
37 O   3.5730   4.8140   6.3220 O 1 RES   0.0000
38 Si   3.5730   4.8140   0.0000 Si 1 RES   0.0000
39 O   3.5730   6.1890   0.4860 O 1 RES   0.0000
40 Si   3.5730   7.5650   0.9730 Si 1 RES   0.0000
41 O   4.7650   4.1260   0.4860 O 1 RES   0.0000
42 O   2.3820   4.1260   0.4860 O 1 RES   0.0000
43 O   3.5730   7.5650   2.4310 O 1 RES   0.0000
44 Si   3.5730   7.5650   3.8900 Si 1 RES   0.0000
45 O   3.5730   6.1890   4.3770 O 1 RES   0.0000
46 Si   3.5730   4.8140   4.8630 Si 1 RES   0.0000
47 O   4.7650   4.1260   4.3770 O 1 RES   0.0000
48 O   2.3820   4.1260   4.3770 O 1 RES   0.0000
49 Si   3.5730   4.8140   7.7810 Si 1 RES   0.0000
50 O   4.7650   4.1260   8.2670 O 1 RES   0.0000
51 O   2.3820   4.1260   8.2670 O 1 RES   0.0000
52 O   3.5730   6.1890   8.2670 O 1 RES   0.0000
53 Si   3.5730   7.5650   8.7530 Si 1 RES   0.0000
54 O   3.5730   7.5650  10.2120 O 1 RES   0.0000
55 O   8.3380   4.8140   6.3220 O 1 RES   0.0000
56 Si   8.3380   4.8140   0.0000 Si 1 RES   0.0000
57 O   8.3380   6.1890   0.4860 O 1 RES   0.0000
58 Si   8.3380   7.5650   0.9730 Si 1 RES   0.0000
59 O   9.5290   4.1260   0.4860 O 1 RES   0.0000
60 O   7.1470   4.1260   0.4860 O 1 RES   0.0000
61 O   8.3380   7.5650   2.4310 O 1 RES   0.0000
62 Si   8.3380   7.5650   3.8900 Si 1 RES   0.0000
63 O   8.3380   6.1890   4.3770 O 1 RES   0.0000
64 Si   8.3380   4.8140   4.8630 Si 1 RES   0.0000
65 O   9.5290   4.1260   4.3770 O 1 RES   0.0000
66 O   7.1470   4.1260   4.3770 O 1 RES   0.0000
67 Si   8.3380   4.8140   7.7810 Si 1 RES   0.0000
68 O   9.5290   4.1260   8.2670 O 1 RES   0.0000
69 O   7.1470   4.1260   8.2670 O 1 RES   0.0000
70 O   8.3380   6.1890   8.2670 O 1 RES   0.0000
71 Si   8.3380   7.5650   8.7530 Si 1 RES   0.0000
72 O   8.3380   7.5650  10.2120 O 1 RES   0.0000
73 O  10.7200   0.6880   6.3220 O 1 RES   0.0000
74 Si  10.7200   0.6880   0.0000 Si 1 RES   0.0000
75 O  10.7200   2.0630   0.4860 O 1 RES   0.0000
76 Si  10.7200   3.4390   0.9730 Si 1 RES   0.0000
77 O  11.9120   0.0000   0.4860 O 1 RES   0.0000
78 O   9.5290   0.0000   0.4860 O 1 RES   0.0000
79 O  10.7200   3.4390   2.4310 O 1 RES   0.0000
80 Si  10.7200   3.4390   3.8900 Si 1 RES   0.0000
81 O  10.7200   2.0630   4.3770 O 1 RES   0.0000
82 Si  10.7200   0.6880   4.8630 Si 1 RES   0.0000
83 O  11.9120   0.0000   4.3770 O 1 RES   0.0000
84 O   9.5290   0.0000   4.3770 O 1 RES   0.0000
85 Si  10.7200   0.6880   7.7810 Si 1 RES   0.0000
86 O  11.9120   0.0000   8.2670 O 1 RES   0.0000
87 O   9.5290   0.0000   8.2670 O 1 RES   0.0000
88 O  10.7200   2.0630   8.2670 O 1 RES   0.0000
89 Si  10.7200   3.4390   8.7530 Si 1 RES   0.0000
90 O  10.7200   3.4390  10.2120 O 1 RES   0.0000
91 O  15.4850   0.6880   6.3220 O 1 RES   0.0000
92 Si  15.4850   0.6880   0.0000 Si 1 RES   0.0000
93 O  15.4850   2.0630   0.4860 O 1 RES   0.0000
94 Si  15.4850   3.4390   0.9730 Si 1 RES   0.0000
95 O  16.6760   0.0000   0.4860 O 1 RES   0.0000
96 O  14.2940   0.0000   0.4860 O 1 RES   0.0000
97 O  15.4850   3.4390   2.4310 O 1 RES   0.0000
98 Si  15.4850   3.4390   3.8900 Si 1 RES   0.0000
99 O  15.4850   2.0630   4.3770 O 1 RES   0.0000
100 Si  15.4850   0.6880   4.8630 Si 1 RES   0.0000
101 O  16.6760   0.0000   4.3770 O 1 RES   0.0000
102 O  14.2940   0.0000   4.3770 O 1 RES   0.0000
103 Si  15.4850   0.6880   7.7810 Si 1 RES   0.0000
104 O  16.6760   0.0000   8.2670 O 1 RES   0.0000
105 O  14.2940   0.0000   8.2670 O 1 RES   0.0000
106 O  15.4850   2.0630   8.2670 O 1 RES   0.0000
107 Si  15.4850   3.4390   8.7530 Si 1 RES   0.0000
108 O  15.4850   3.4390  10.2120 O 1 RES   0.0000
109 O  13.1030   4.8140   6.3220 O 1 RES   0.0000
110 Si  13.1030   4.8140   0.0000 Si 1 RES   0.0000
111 O  13.1030   6.1890   0.4860 O 1 RES   0.0000
112 Si  13.1030   7.5650   0.9730 Si 1 RES   0.0000
113 O  14.2940   4.1260   0.4860 O 1 RES   0.0000
114 O  11.9120   4.1260   0.4860 O 1 RES   0.0000
115 O  13.1030   7.5650   2.4310 O 1 RES   0.0000
116 Si  13.1030   7.5650   3.8900 Si 1 RES   0.0000
117 O  13.1030   6.1890   4.3770 O 1 RES   0.0000
118 Si  13.1030   4.8140   4.8630 Si 1 RES   0.0000
119 O  14.2940   4.1260   4.3770 O 1 RES   0.0000
120 O  11.9120   4.1260   4.3770 O 1 RES   0.0000
121 Si  13.1030   4.8140   7.7810 Si 1 RES   0.0000
122 O  14.2940   4.1260   8.2670 O 1 RES   0.0000
123 O  11.9120   4.1260   8.2670 O 1 RES   0.0000
124 O  13.1030   6.1890   8.2670 O 1 RES   0.0000
125 Si  13.1030   7.5650   8.7530 Si 1 RES   0.0000
126 O  13.1030   7.5650  10.2120 O 1 RES   0.0000
127 O  17.8670   4.8140   6.3220 O 1 RES   0.0000
128 Si  17.8670   4.8140   0.0000 Si 1 RES   0.0000
129 O  17.8670   6.1890   0.4860 O 1 RES   0.0000
130 Si  17.8670   7.5650   0.9730 Si 1 RES   0.0000
131 O  19.0580   4.1260   0.4860 O 1 RES   0.0000
132 O  16.6760   4.1260   0.4860 O 1 RES   0.0000
133 O  17.8670   7.5650   2.4310 O 1 RES   0.0000
134 Si  17.8670   7.5650   3.8900 Si 1 RES   0.0000
135 O  17.8670   6.1890   4.3770 O 1 RES   0.0000
136 Si  17.8670   4.8140   4.8630 Si 1 RES   0.0000
137 O  19.0580   4.1260   4.3770 O 1 RES   0.0000
138 O  16.6760   4.1260   4.3770 O 1 RES   0.0000
139 Si  17.8670   4.8140   7.7810 Si 1 RES   0.0000
140 O  19.0580   4.1260   8.2670 O 1 RES   0.0000
141 O  16.6760   4.1260   8.2670 O 1 RES   0.0000
142 O  17.8670   6.1890   8.2670 O 1 RES   0.0000
143 Si  17.8670   7.5650   8.7530 Si 1 RES   0.0000
144 O  17.8670   7.5650  10.2120 O 1 RES   0.0000
145 O  20.2500   0.6880   6.3220 O 1 RES   0.0000
146 Si  20.2500   0.6880   0.0000 Si 1 RES   0.0000
147 O  20.2500   2.0630   0.4860 O 1 RES   0.0000
148 Si  20.2500   3.4390   0.9730 Si 1 RES   0.0000
149 O  21.4410   0.0000   0.4860 O 1 RES   0.0000
150 O  19.0580   0.0000   0.4860 O 1 RES   0.0000
151 O  20.2500   3.4390   2.4310 O 1 RES   0.0000
152 Si  20.2500   3.4390   3.8900 Si 1 RES   0.0000
153 O  20.2500   2.0630   4.3770 O 1 RES   0.0000
154 Si  20.2500   0.6880   4.8630 Si 1 RES   0.0000
155 O  21.4410   0.0000   4.3770 O 1 RES   0.0000
156 O  19.0580   0.0000   4.3770 O 1 RES   0.0000
157 Si  20.2500   0.6880   7.7810 Si 1 RES   0.0000
158 O  21.4410   0.0000   8.2670 O 1 RES   0.0000
159 O  19.0580   0.0000   8.2670 O 1 RES   0.0000
160 O  20.2500   2.0630   8.2670 O 1 RES   0.0000
161 Si  20.2500   3.4390   8.7530 Si 1 RES   0.0000
162 O  20.2500   3.4390  10.2120 O 1 RES   0.0000
163 O  25.0140   0.6880   6.3220 O 1 RES   0.0000
164 Si  25.0140   0.6880   0.0000 Si 1 RES   0.0000
165 O  25.0140   2.0630   0.4860 O 1 RES   0.0000
166 Si  25.0140   3.4390   0.9730 Si 1 RES   0.0000
167 O  26.2050   0.0000   0.4860 O 1 RES   0.0000
168 O  23.8230   0.0000   0.4860 O 1 RES   0.0000
169 O  25.0140   3.4390   2.4310 O 1 RES   0.0000
170 Si  25.0140   3.4390   3.8900 Si 1 RES   0.0000
171 O  25.0140   2.0630   4.3770 O 1 RES   0.0000
172 Si  25.0140   0.6880   4.8630 Si 1 RES   0.0000
173 O  26.2050   0.0000   4.3770 O 1 RES   0.0000
174 O  23.8230   0.0000   4.3770 O 1 RES   0.0000
175 Si  25.0140   0.6880   7.7810 Si 1 RES   0.0000
176 O  26.2050   0.0000   8.2670 O 1 RES   0.0000
177 O  23.8230   0.0000   8.2670 O 1 RES   0.0000
178 O  25.0140   2.0630   8.2670 O 1 RES   0.0000
179 Si  25.0140   3.4390   8.7530 Si 1 RES   0.0000
180 O  25.0140   3.4390  10.2120 O 1 RES   0.0000
181 O  22.6320   4.8140   6.3220 O 1 RES   0.0000
182 Si  22.6320   4.8140   0.0000 Si 1 RES   0.0000
183 O  22.6320   6.1890   0.4860 O 1 RES   0.0000
184 Si  22.6320   7.5650   0.9730 Si 1 RES   0.0000
185 O  23.8230   4.1260   0.4860 O 1 RES   0.0000
186 O  21.4410   4.1260   0.4860 O 1 RES   0.0000
187 O  22.6320   7.5650   2.4310 O 1 RES   0.0000
188 Si  22.6320   7.5650   3.8900 Si 1 RES   0.0000
189 O  22.6320   6.1890   4.3770 O 1 RES   0.0000
190 Si  22.6320   4.8140   4.8630 Si 1 RES   0.0000
191 O  23.8230   4.1260   4.3770 O 1 RES   0.0000
192 O  21.4410   4.1260   4.3770 O 1 RES   0.0000
193 Si  22.6320   4.8140   7.7810 Si 1 RES   0.0000
194 O  23.8230   4.1260   8.2670 O 1 RES   0.0000
195 O  21.4410   4.1260   8.2670 O 1 RES   0.0000
196 O  22.6320   6.1890   8.2670 O 1 RES   0.0000
197 Si  22.6320   7.5650   8.7530 Si 1 RES   0.0000
198 O  22.6320   7.5650  10.2120 O 1 RES   0.0000
199 O  27.3960   4.8140   6.3220 O 1 RES   0.0000
200 Si  27.3960   4.8140   0.0000 Si 1 RES   0.0000
201 O  27.3960   6.1890   0.4860 O 1 RES   0.0000
202 Si  27.3960   7.5650   0.9730 Si 1 RES   0.0000
203 O  28.5870   4.1260   0.4860 O 1 RES   0.0000
204 O  26.2050   4.1260   0.4860 O 1 RES   0.0000
205 O  27.3960   7.5650   2.4310 O 1 RES   0.0000
206 Si  27.3960   7.5650   3.8900 Si 1 RES   0.0000
207 O  27.3960   6.1890   4.3770 O 1 RES   0.0000
208 Si  27.3960   4.8140   4.8630 Si 1 RES   0.0000
209 O  28.5870   4.1260   4.3770 O 1 RES   0.0000
210 O  26.2050   4.1260   4.3770 O 1 RES   0.0000
211 Si  27.3960   4.8140   7.7810 Si 1 RES   0.0000
212 O  28.5870   4.1260   8.2670 O 1 RES   0.0000
213 O  26.2050   4.1260   8.2670 O 1 RES   0.0000
214 O  27.3960   6.1890   8.2670 O 1 RES   0.0000
215 Si  27.3960   7.5650   8.7530 Si 1 RES   0.0000
216 O  27.3960   7.5650  10.2120 O 1 RES   0.0000
217 O  29.7790   0.6880   6.3220 O 1 RES   0.0000
218 Si  29.7790   0.6880   0.0000 Si 1 RES   0.0000
219 O  29.7790   2.0630   0.4860 O 1 RES   0.0000
220 Si  29.7790   3.4390   0.9730 Si 1 RES   0.0000
221 O  30.9700   0.0000   0.4860 O 1 RES   0.0000
222 O  28.5870   0.0000   0.4860 O 1 RES   0.0000
223 O  29.7790   3.4390   2.4310 O 1 RES   0.0000
224 Si  29.7790   3.4390   3.8900 Si 1 RES   0.0000
225 O  29.7790   2.0630   4.3770 O 1 RES   0.0000
226 Si  29.7790   0.6880   4.8630 Si 1 RES   0.0000
227 O  30.9700   0.0000   4.3770 O 1 RES   0.0000
228 O  28.5870   0.0000   4.3770 O 1 RES   0.0000
229 Si  29.7790   0.6880   7.7810 Si 1 RES   0.0000
230 O  30.9700   0.0000   8.2670 O 1 RES   0.0000
231 O  28.5870   0.0000   8.2670 O 1 RES   0.0000
232 O  29.7790   2.0630   8.2670 O 1 RES   0.0000
233 Si  29.7790   3.4390   8.7530 Si 1 RES   0.0000
234 O  29.7790   3.4390  10.2120 O 1 RES   0.0000
235 O  34.5430   0.6880   6.3220 O 1 RES   0.0000
236 Si  34.5430   0.6880   0.0000 Si 1 RES   0.0000
237 O  34.5430   2.0630   0.4860 O 1 RES   0.0000
238 Si  34.5430   3.4390   0.9730 Si 1 RES   0.0000
239 O  35.7340   0.0000   0.4860 O 1 RES   0.0000
240 O  33.3520   0.0000   0.4860 O 1 RES   0.0000
241 O  34.5430   3.4390   2.4310 O 1 RES   0.0000
242 Si  34.5430   3.4390   3.8900 Si 1 RES   0.0000
243 O  34.5430   2.0630   4.3770 O 1 RES   0.0000
244 Si  34.5430   0.6880   4.8630 Si 1 RES   0.0000
245 O  35.7340   0.0000   4.3770 O 1 RES   0.0000
246 O  33.3520   0.0000   4.3770 O 1 RES   0.0000
247 Si  34.5430   0.6880   7.7810 Si 1 RES   0.0000
248 O  35.7340   0.0000   8.2670 O 1 RES   0.0000
249 O  33.3520   0.0000   8.2670 O 1 RES   0.0000
250 O  34.5430   2.0630   8.2670 O 1 RES   0.0000
251 Si  34.5430   3.4390   8.7530 Si 1 RES   0.0000
252 O  34.5430   3.4390  10.2120 O 1 RES   0.0000
253 O  32.1610   4.8140   6.3220 O 1 RES   0.0000
254 Si  32.1610   4.8140   0.0000 Si 1 RES   0.0000
255 O  32.1610   6.1890   0.4860 O 1 RES   0.0000
256 Si  32.1610   7.5650   0.9730 Si 1 RES   0.0000
257 O  33.3520   4.1260   0.4860 O 1 RES   0.0000
258 O  30.9700   4.1260   0.4860 O 1 RES   0.0000
259 O  32.1610   7.5650   2.4310 O 1 RES   0.0000
260 Si  32.1610   7.5650   3.8900 Si 1 RES   0.0000
261 O  32.1610   6.1890   4.3770 O 1 RES   0.0000
262 Si  32.1610   4.8140   4.8630 Si 1 RES   0.0000
263 O  33.3520   4.1260   4.3770 O 1 RES   0.0000
264 O  30.9700   4.1260   4.3770 O 1 RES   0.0000
265 Si  32.1610   4.8140   7.7810 Si 1 RES   0.0000
266 O  33.3520   4.1260   8.2670 O 1 RES   0.0000
267 O  30.9700   4.1260   8.2670 O 1 RES   0.0000
268 O  32.1610   6.1890   8.2670 O 1 RES   0.0000
269 Si  32.1610   7.5650   8.7530 Si 1 RES   0.0000
270 O  32.1610   7.5650  10.2120 O 1 RES   0.0000
271 O  36.9250   4.8140   6.3220 O 1 RES   0.0000
272 Si  36.9250   4.8140   0.0000 Si 1 RES   0.0000
273 O  36.9250   6.1890   0.4860 O 1 RES   0.0000
274 Si  36.9250   7.5650   0.9730 Si 1 RES   0.0000
275 O  38.1170   4.1260   0.4860 O 1 RES   0.0000
276 O  35.7340   4.1260   0.4860 O 1 RES   0.0000
277 O  36.9250   7.5650   2.4310 O 1 RES   0.0000
278 Si  36.9250   7.5650   3.8900 Si 1 RES   0.0000
279 O  36.9250   6.1890   4.3770 O 1 RES   0.0000
280 Si  36.9250   4.8140   4.8630 Si 1 RES   0.0000
281 O  38.1170   4.1260   4.3770 O 1 RES   0.0000
282 O  35.7340   4.1260   4.3770 O 1 RES   0.0000
283 Si  36.9250   4.8140   7.7810 Si 1 RES   0.0000
284 O  38.1170   4.1260   8.2670 O 1 RES   0.0000
285 O  35.7340   4.1260   8.2670 O 1 RES   0.0000
286 O  36.9250   6.1890   8.2670 O 1 RES   0.0000
287 Si  36.9250   7.5650   8.7530 Si 1 RES   0.0000
288 O  36.9250   7.5650  10.2120 O 1 RES   0.0000
289 O  39.3080   0.6880   6.3220 O 1 RES   0.0000
290 Si  39.3080   0.6880   0.0000 Si 1 RES   0.0000
291 O  39.3080   2.0630   0.4860 O 1 RES   0.0000
292 Si  39.3080   3.4390   0.9730 Si 1 RES   0.0000
293 O  40.4990   0.0000   0.4860 O 1 RES   0.0000
294 O  38.1170   0.0000   0.4860 O 1 RES   0.0000
295 O  39.3080   3.4390   2.4310 O 1 RES   0.0000
296 Si  39.3080   3.4390   3.8900 Si 1 RES   0.0000
297 O  39.3080   2.0630   4.3770 O 1 RES   0.0000
298 Si  39.3080   0.6880   4.8630 Si 1 RES   0.0000
299 O  40.4990   0.0000   4.3770 O 1 RES   0.0000
300 O  38.1170   0.0000   4.3770 O 1 RES   0.0000
301 Si  39.3080   0.6880   7.7810 Si 1 RES   0.0000
302 O  40.4990   0.0000   8.2670 O 1 RES   0.0000
303 O  38.1170   0.0000   8.2670 O 1 RES   0.0000
304 O  39.3080   2.0630   8.2670 O 1 RES   0.0000
305 Si  39.3080   3.4390   8.7530 Si 1 RES   0.0000
306 O  39.3080   3.4390  10.2120 O 1 RES   0.0000
307 O  44.0720   0.6880   6.3220 O 1 RES   0.0000
308 Si  44.0720   0.6880   0.0000 Si 1 RES   0.0000
309 O  44.0720   2.0630   0.4860 O 1 RES   0.0000
310 Si  44.0720   3.4390   0.9730 Si 1 RES   0.0000
311 O  45.2640   0.0000   0.4860 O 1 RES   0.0000
312 O  42.8810   0.0000   0.4860 O 1 RES   0.0000
313 O  44.0720   3.4390   2.4310 O 1 RES   0.0000
314 Si  44.0720   3.4390   3.8900 Si 1 RES   0.0000
315 O  44.0720   2.0630   4.3770 O 1 RES   0.0000
316 Si  44.0720   0.6880   4.8630 Si 1 RES   0.0000
317 O  45.2640   0.0000   4.3770 O 1 RES   0.0000
318 O  42.8810   0.0000   4.3770 O 1 RES   0.0000
319 Si  44.0720   0.6880   7.7810 Si 1 RES   0.0000
320 O  45.2640   0.0000   8.2670 O 1 RES   0.0000
321 O  42.8810   0.0000   8.2670 O 1 RES   0.0000
322 O  44.0720   2.0630   8.2670 O 1 RES   0.0000
323 Si  44.0720   3.4390   8.7530 Si 1 RES   0.0000
324 O  44.0720   3.4390  10.2120 O 1 RES   0.0000
325 O  41.6900   4.8140   6.3220 O 1 RES   0.0000
326 Si  41.6900   4.8140   0.0000 Si 1 RES   0.0000
327 O  41.6900   6.1890   0.4860 O 1 RES   0.0000
328 Si  41.6900   7.5650   0.9730 Si 1 RES   0.0000
329 O  42.8810   4.1260   0.4860 O 1 RES   0.0000
330 O  40.4990   4.1260   0.4860 O 1 RES   0.0000
331 O  41.6900   7.5650   2.4310 O 1 RES   0.0000
332 Si  41.6900   7.5650   3.8900 Si 1 RES   0.0000
333 O  41.6900   6.1890   4.3770 O 1 RES   0.0000
334 Si  41.6900   4.8140   4.8630 Si 1 RES   0.0000
335 O  42.8810   4.1260   4.3770 O 1 RES   0.0000
336 O  40.4990   4.1260   4.3770 O 1 RES   0.0000
337 Si  41.6900   4.8140   7.7810 Si 1 RES   0.0000
338 O  42.8810   4.1260   8.2670 O 1 RES   0.0000
339 O  40.4990   4.1260   8.2670 O 1 RES   0.0000
340 O  41.6900   6.1890   8.2670 O 1 RES   0.0000
341 Si  41.6900   7.5650   8.7530 Si 1 RES   0.0000
342 O  41.6900   7.5650  10.2120 O 1 RES   0.0000
343 O  46.4550   4.8140   6.3220 O 1 RES   0.0000
344 Si  46.4550   4.8140   0.0000 Si 1 RES   0.0000
345 O  46.4550   6.1890   0.4860 O 1 RES   0.0000
346 Si  46.4550   7.5650   0.9730 Si 1 RES   0.0000
347 O  -0.0430   4.1260   0.4860 O 1 RES   0.0000
348 O  45.2640   4.1260   0.4860 O 1 RES   0.0000
349 O  46.4550   7.5650   2.4310 O 1 RES   0.0000
350 Si  46.4550   7.5650   3.8900 Si 1 RES   0.0000
351 O  46.4550   6.1890   4.3770 O 1 RES   0.0000
352 Si  46.4550   4.8140   4.8630 Si 1 RES   0.0000
353 O  -0.0430   4.1260   4.3770 O 1 RES   0.0000
354 O  45.2640   4.1260   4.3770 O 1 RES   0.0000
355 Si  46.4550   4.8140   7.7810 Si 1 RES   0.0000
356 O  -0.0430   4.1260   8.2670 O 1 RES   0.0000
357 O  45.2640   4.1260   8.2670 O 1 RES   0.0000
358 O  46.4550   6.1890   8.2670 O 1 RES   0.0000
359 Si  46.4550   7.5650   8.7530 Si 1 RES   0.0000
360 O  46.4550   7.5650  10.2120 O 1 RES   0.0000
361 O   1.1910   8.9400   6.3220 O 1 RES   0.0000
362 Si   1.1910   8.9400   0.0000 Si 1 RES   0.0000
363 O   1.1910  10.3160   0.4860 O 1 RES   0.0000
364 Si   1.1910  11.6910   0.9730 Si 1 RES   0.0000
365 O   2.3820   8.2530   0.4860 O 1 RES   0.0000
366 O   0.0000   8.2530   0.4860 O 1 RES   0.0000
367 O   1.1910  11.6910   2.4310 O 1 RES   0.0000
368 Si   1.1910  11.6910   3.8900 Si 1 RES   0.0000
369 O   1.1910  10.3160   4.3770 O 1 RES   0.0000
370 Si   1.1910   8.9400   4.8630 Si 1 RES   0.0000
371 O   2.3820   8.2530   4.3770 O 1 RES   0.0000
372 O   0.0000   8.2530   4.3770 O 1 RES   0.0000
373 Si   1.1910   8.9400   7.7810 Si 1 RES   0.0000
374 O   2.3820   8.2530   8.2670 O 1 RES   0.0000
375 O   0.0000   8.2530   8.2670 O 1 RES   0.0000
376 O   1.1910  10.3160   8.2670 O 1 RES   0.0000
377 Si   1.1910  11.6910   8.7530 Si 1 RES   0.0000
378 O   1.1910  11.6910  10.2120 O 1 RES   0.0000
379 O   5.9560   8.9400   6.3220 O 1 RES   0.0000
380 Si   5.9560   8.9400   0.0000 Si 1 RES   0.0000
381 O   5.9560  10.3160   0.4860 O 1 RES   0.0000
382 Si   5.9560  11.6910   0.9730 Si 1 RES   0.0000
383 O   7.1470   8.2530   0.4860 O 1 RES   0.0000
384 O   4.7650   8.2530   0.4860 O 1 RES   0.0000
385 O   5.9560  11.6910   2.4310 O 1 RES   0.0000
386 Si   5.9560  11.6910   3.8900 Si 1 RES   0.0000
387 O   5.9560  10.3160   4.3770 O 1 RES   0.0000
388 Si   5.9560   8.9400   4.8630 Si 1 RES   0.0000
389 O   7.1470   8.2530   4.3770 O 1 RES   0.0000
390 O   4.7650   8.2530   4.3770 O 1 RES   0.0000
391 Si   5.9560   8.9400   7.7810 Si 1 RES   0.0000
392 O   7.1470   8.2530   8.2670 O 1 RES   0.0000
393 O   4.7650   8.2530   8.2670 O 1 RES   0.0000
394 O   5.9560  10.3160   8.2670 O 1 RES   0.0000
395 Si   5.9560  11.6910   8.7530 Si 1 RES   0.0000
396 O   5.9560  11.6910  10.2120 O 1 RES   0.0000
397 O   3.5730  13.0660   6.3220 O 1 RES   0.0000
398 Si   3.5730  13.0660   0.0000 Si 1 RES   0.0000
399 O   3.5730  14.4420   0.4860 O 1 RES   0.0000
400 Si   3.5730  15.8170   0.9730 Si 1 RES   0.0000
401 O   4.7650  12.3790   0.4860 O 1 RES   0.0000
402 O   2.3820  12.3790   0.4860 O 1 RES   0.0000
403 O   3.5730  15.8170   2.4310 O 1 RES   0.0000
404 Si   3.5730  15.8170   3.8900 Si 1 RES   0.0000
405 O   3.5730  14.4420   4.3770 O 1 RES   0.0000
406 Si   3.5730  13.0660   4.8630 Si 1 RES   0.0000
407 O   4.7650  12.3790   4.3770 O 1 RES   0.0000
408 O   2.3820  12.3790   4.3770 O 1 RES   0.0000
409 Si   3.5730  13.0660   7.7810 Si 1 RES   0.0000
410 O   4.7650  12.3790   8.2670 O 1 RES   0.0000
411 O   2.3820  12.3790   8.2670 O 1 RES   0.0000
412 O   3.5730  14.4420   8.2670 O 1 RES   0.0000
413 Si   3.5730  15.8170   8.7530 Si 1 RES   0.0000
414 O   3.5730  15.8170  10.2120 O 1 RES   0.0000
415 O   8.3380  13.0660   6.3220 O 1 RES   0.0000
416 Si   8.3380  13.0660   0.0000 Si 1 RES   0.0000
417 O   8.3380  14.4420   0.4860 O 1 RES   0.0000
418 Si   8.3380  15.8170   0.9730 Si 1 RES   0.0000
419 O   9.5290  12.3790   0.4860 O 1 RES   0.0000
420 O   7.1470  12.3790   0.4860 O 1 RES   0.0000
421 O   8.3380  15.8170   2.4310 O 1 RES   0.0000
422 Si   8.3380  15.8170   3.8900 Si 1 RES   0.0000
423 O   8.3380  14.4420   4.3770 O 1 RES   0.0000
424 Si   8.3380  13.0660   4.8630 Si 1 RES   0.0000
425 O   9.5290  12.3790   4.3770 O 1 RES   0.0000
426 O   7.1470  12.3790   4.3770 O 1 RES   0.0000
427 Si   8.3380  13.0660   7.7810 Si 1 RES   0.0000
428 O   9.5290  12.3790   8.2670 O 1 RES   0.0000
429 O   7.1470  12.3790   8.2670 O 1 RES   0.0000
430 O   8.3380  14.4420   8.2670 O 1 RES   0.0000
431 Si   8.3380  15.8170   8.7530 Si 1 RES   0.0000
432 O   8.3380  15.8170  10.2120 O 1 RES   0.0000
433 O  10.7200   8.9400   6.3220 O 1 RES   0.0000
434 Si  10.7200   8.9400   0.0000 Si 1 RES   0.0000
435 O  10.7200  10.3160   0.4860 O 1 RES   0.0000
436 Si  10.7200  11.6910   0.9730 Si 1 RES   0.0000
437 O  11.9120   8.2530   0.4860 O 1 RES   0.0000
438 O   9.5290   8.2530   0.4860 O 1 RES   0.0000
439 O  10.7200  11.6910   2.4310 O 1 RES   0.0000
440 Si  10.7200  11.6910   3.8900 Si 1 RES   0.0000
441 O  10.7200  10.3160   4.3770 O 1 RES   0.0000
442 Si  10.7200   8.9400   4.8630 Si 1 RES   0.0000
443 O  11.9120   8.2530   4.3770 O 1 RES   0.0000
444 O   9.5290   8.2530   4.3770 O 1 RES   0.0000
445 Si  10.7200   8.9400   7.7810 Si 1 RES   0.0000
446 O  11.9120   8.2530   8.2670 O 1 RES   0.0000
447 O   9.5290   8.2530   8.2670 O 1 RES   0.0000
448 O  10.7200  10.3160   8.2670 O 1 RES   0.0000
449 Si  10.7200  11.6910   8.7530 Si 1 RES   0.0000
450 O  10.7200  11.6910  10.2120 O 1 RES   0.0000
451 O  15.4850   8.9400   6.3220 O 1 RES   0.0000
452 Si  15.4850   8.9400   0.0000 Si 1 RES   0.0000
453 O  15.4850  10.3160   0.4860 O 1 RES   0.0000
454 Si  15.4850  11.6910   0.9730 Si 1 RES   0.0000
455 O  16.6760   8.2530   0.4860 O 1 RES   0.0000
456 O  14.2940   8.2530   0.4860 O 1 RES   0.0000
457 O  15.4850  11.6910   2.4310 O 1 RES   0.0000
458 Si  15.4850  11.6910   3.8900 Si 1 RES   0.0000
459 O  15.4850  10.3160   4.3770 O 1 RES   0.0000
460 Si  15.4850   8.9400   4.8630 Si 1 RES   0.0000
461 O  16.6760   8.2530   4.3770 O 1 RES   0.0000
462 O  14.2940   8.2530   4.3770 O 1 RES   0.0000
463 Si  15.4850   8.9400   7.7810 Si 1 RES   0.0000
464 O  16.6760   8.2530   8.2670 O 1 RES   0.0000
465 O  14.2940   8.2530   8.2670 O 1 RES   0.0000
466 O  15.4850  10.3160   8.2670 O 1 RES   0.0000
467 Si  15.4850  11.6910   8.7530 Si 1 RES   0.0000
468 O  15.4850  11.6910  10.2120 O 1 RES   0.0000
469 O  13.1030  13.0660   6.3220 O 1 RES   0.0000
470 Si  13.1030  13.0660   0.0000 Si 1 RES   0.0000
471 O  13.1030  14.4420   0.4860 O 1 RES   0.0000
472 Si  13.1030  15.8170   0.9730 Si 1 RES   0.0000
473 O  14.2940  12.3790   0.4860 O 1 RES   0.0000
474 O  11.9120  12.3790   0.4860 O 1 RES   0.0000
475 O  13.1030  15.8170   2.4310 O 1 RES   0.0000
476 Si  13.1030  15.8170   3.8900 Si 1 RES   0.0000
477 O  13.1030  14.4420   4.3770 O 1 RES   0.0000
478 Si  13.1030  13.0660   4.8630 Si 1 RES   0.0000
479 O  14.2940  12.3790   4.3770 O 1 RES   0.0000
480 O  11.9120  12.3790   4.3770 O 1 RES   0.0000
481 Si  13.1030  13.0660   7.7810 Si 1 RES   0.0000
482 O  14.2940  12.3790   8.2670 O 1 RES   0.0000
483 O  11.9120  12.3790   8.2670 O 1 RES   0.0000
484 O  13.1030  14.4420   8.2670 O 1 RES   0.0000
485 Si  13.1030  15.8170   8.7530 Si 1 RES   0.0000
486 O  13.1030  15.8170  10.2120 O 1 RES   0.0000
487 O  17.8670  13.0660   6.3220 O 1 RES   0.0000
488 Si  17.8670  13.0660   0.0000 Si 1 RES   0.0000
489 O  17.8670  14.4420   0.4860 O 1 RES   0.0000
490 Si  17.8670  15.8170   0.9730 Si 1 RES   0.0000
491 O  19.0580  12.3790   0.4860 O 1 RES   0.0000
492 O  16.6760  12.3790   0.4860 O 1 RES   0.0000
493 O  17.8670  15.8170   2.4310 O 1 RES   0.0000
494 Si  17.8670  15.8170   3.8900 Si 1 RES   0.0000
495 O  17.8670  14.4420   4.3770 O 1 RES   0.0000
496 Si  17.8670  13.0660   4.8630 Si 1 RES   0.0000
497 O  19.0580  12.3790   4.3770 O 1 RES   0.0000
498 O  16.6760  12.3790   4.3770 O 1 RES   0.0000
499 Si  17.8670  13.0660   7.7810 Si 1 RES   0.0000
500 O  19.0580  12.3790   8.2670 O 1 RES   0.0000
501 O  16.6760  12.3790   8.2670 O 1 RES   0.0000
502 O  17.8670  14.4420   8.2670 O 1 RES   0.0000
503 Si  17.8670  15.8170   8.7530 Si 1 RES   0.0000
504 O  17.8670  15.8170  10.2120 O 1 RES   0.0000
505 O  20.2500   8.9400   6.3220 O 1 RES   0.0000
506 Si  20.2500   8.9400   0.0000 Si 1 RES   0.0000
507 O  20.2500  10.3160   0.4860 O 1 RES   0.0000
508 Si  20.2500  11.6910   0.9730 Si 1 RES   0.0000
509 O  21.4410   8.2530   0.4860 O 1 RES   0.0000
510 O  19.0580   8.2530   0.4860 O 1 RES   0.0000
511 O  20.2500  11.6910   2.4310 O 1 RES   0.0000
512 Si  20.2500  11.6910   3.8900 Si 1 RES   0.0000
513 O  20.2500  10.3160   4.3770 O 1 RES   0.0000
514 Si  20.2500   8.9400   4.8630 Si 1 RES   0.0000
515 O  21.4410   8.2530   4.3770 O 1 RES   0.0000
516 O  19.0580   8.2530   4.3770 O 1 RES   0.0000
517 Si  20.2500   8.9400   7.7810 Si 1 RES   0.0000
518 O  21.4410   8.2530   8.2670 O 1 RES   0.0000
519 O  19.0580   8.2530   8.2670 O 1 RES   0.0000
520 O  20.2500  10.3160   8.2670 O 1 RES   0.0000
521 Si  20.2500  11.6910   8.7530 Si 1 RES   0.0000
522 O  20.2500  11.6910  10.2120 O 1 RES   0.0000
523 O  25.0140   8.9400   6.3220 O 1 RES   0.0000
524 Si  25.0140   8.9400   0.0000 Si 1 RES   0.0000
525 O  25.0140  10.3160   0.4860 O 1 RES   0.0000
526 Si  25.0140  11.6910   0.9730 Si 1 RES   0.0000
527 O  26.2050   8.2530   0.4860 O 1 RES   0.0000
528 O  23.8230   8.2530   0.4860 O 1 RES   0.0000
529 O  25.0140  11.6910   2.4310 O 1 RES   0.0000
530 Si  25.0140  11.6910   3.8900 Si 1 RES   0.0000
531 O  25.0140  10.3160   4.3770 O 1 RES   0.0000
532 Si  25.0140   8.9400   4.8630 Si 1 RES   0.0000
533 O  26.2050   8.2530   4.3770 O 1 RES   0.0000
534 O  23.8230   8.2530   4.3770 O 1 RES   0.0000
535 Si  25.0140   8.9400   7.7810 Si 1 RES   0.0000
536 O  26.2050   8.2530   8.2670 O 1 RES   0.0000
537 O  23.8230   8.2530   8.2670 O 1 RES   0.0000
538 O  25.0140  10.3160   8.2670 O 1 RES   0.0000
539 Si  25.0140  11.6910   8.7530 Si 1 RES   0.0000
540 O  25.0140  11.6910  10.2120 O 1 RES   0.0000
541 O  22.6320  13.0660   6.3220 O 1 RES   0.0000
542 Si  22.6320  13.0660   0.0000 Si 1 RES   0.0000
543 O  22.6320  14.4420   0.4860 O 1 RES   0.0000
544 Si  22.6320  15.8170   0.9730 Si 1 RES   0.0000
545 O  23.8230  12.3790   0.4860 O 1 RES   0.0000
546 O  21.4410  12.3790   0.4860 O 1 RES   0.0000
547 O  22.6320  15.8170   2.4310 O 1 RES   0.0000
548 Si  22.6320  15.8170   3.8900 Si 1 RES   0.0000
549 O  22.6320  14.4420   4.3770 O 1 RES   0.0000
550 Si  22.6320  13.0660   4.8630 Si 1 RES   0.0000
551 O  23.8230  12.3790   4.3770 O 1 RES   0.0000
552 O  21.4410  12.3790   4.3770 O 1 RES   0.0000
553 Si  22.6320  13.0660   7.7810 Si 1 RES   0.0000
554 O  23.8230  12.3790   8.2670 O 1 RES   0.0000
555 O  21.4410  12.3790   8.2670 O 1 RES   0.0000
556 O  22.6320  14.4420   8.2670 O 1 RES   0.0000
557 Si  22.6320  15.8170   8.7530 Si 1 RES   0.0000
558 O  22.6320  15.8170  10.2120 O 1 RES   0.0000
559 O  27.3960  13.0660   6.3220 O 1 RES   0.0000
560 Si  27.3960  13.0660   0.0000 Si 1 RES   0.0000
561 O  27.3960  14.4420   0.4860 O 1 RES   0.0000
562 Si  27.3960  15.8170   0.9730 Si 1 RES   0.0000
563 O  28.5870  12.3790   0.4860 O 1 RES   0.0000
564 O  26.2050  12.3790   0.4860 O 1 RES   0.0000
565 O  27.3960  15.8170   2.4310 O 1 RES   0.0000
566 Si  27.3960  15.8170   3.8900 Si 1 RES   0.0000
567 O  27.3960  14.4420   4.3770 O 1 RES   0.0000
568 Si  27.3960  13.0660   4.8630 Si 1 RES   0.0000
569 O  28.5870  12.3790   4.3770 O 1 RES   0.0000
570 O  26.2050  12.3790   4.3770 O 1 RES   0.0000
571 Si  27.3960  13.0660   7.7810 Si 1 RES   0.0000
572 O  28.5870  12.3790   8.2670 O 1 RES   0.0000
573 O  26.2050  12.3790   8.2670 O 1 RES   0.0000
574 O  27.3960  14.4420   8.2670 O 1 RES   0.0000
575 Si  27.3960  15.8170   8.7530 Si 1 RES   0.0000
576 O  27.3960  15.8170  10.2120 O 1 RES   0.0000
577 O  29.7790   8.9400   6.3220 O 1 RES   0.0000
578 Si  29.7790   8.9400   0.0000 Si 1 RES   0.0000
579 O  29.7790  10.3160   0.4860 O 1 RES   0.0000
580 Si  29.7790  11.6910   0.9730 Si 1 RES   0.0000
581 O  30.9700   8.2530   0.4860 O 1 RES   0.0000
582 O  28.5870   8.2530   0.4860 O 1 RES   0.0000
583 O  29.7790  11.6910   2.4310 O 1 RES   0.0000
584 Si  29.7790  11.6910   3.8900 Si 1 RES   0.0000
585 O  29.7790  10.3160   4.3770 O 1 RES   0.0000
586 Si  29.7790   8.9400   4.8630 Si 1 RES   0.0000
587 O  30.9700   8.2530   4.3770 O 1 RES   0.0000
588 O  28.5870   8.2530   4.3770 O 1 RES   0.0000
589 Si  29.7790   8.9400   7.7810 Si 1 RES   0.0000
590 O  30.9700   8.2530   8.2670 O 1 RES   0.0000
591 O  28.5870   8.2530   8.2670 O 1 RES   0.0000
592 O  29.7790  10.3160   8.2670 O 1 RES   0.0000
593 Si  29.7790  11.6910   8.7530 Si 1 RES   0.0000
594 O  29.7790  11.6910  10.2120 O 1 RES   0.0000
595 O  34.5430   8.9400   6.3220 O 1 RES   0.0000
596 Si  34.5430   8.9400   0.0000 Si 1 RES   0.0000
597 O  34.5430  10.3160   0.4860 O 1 RES   0.0000
598 Si  34.5430  11.6910   0.9730 Si 1 RES   0.0000
599 O  35.7340   8.2530   0.4860 O 1 RES   0.0000
600 O  33.3520   8.2530   0.4860 O 1 RES   0.0000
601 O  34.5430  11.6910   2.4310 O 1 RES   0.0000
602 Si  34.5430  11.6910   3.8900 Si 1 RES   0.0000
603 O  34.5430  10.3160   4.3770 O 1 RES   0.0000
604 Si  34.5430   8.9400   4.8630 Si 1 RES   0.0000
605 O  35.7340   8.2530   4.3770 O 1 RES   0.0000
606 O  33.3520   8.2530   4.3770 O 1 RES   0.0000
607 Si  34.5430   8.9400   7.7810 Si 1 RES   0.0000
608 O  35.7340   8.2530   8.2670 O 1 RES   0.0000
609 O  33.3520   8.2530   8.2670 O 1 RES   0.0000
610 O  34.5430  10.3160   8.2670 O 1 RES   0.0000
611 Si  34.5430  11.6910   8.7530 Si 1 RES   0.0000
612 O  34.5430  11.6910  10.2120 O 1 RES   0.0000
613 O  32.1610  13.0660   6.3220 O 1 RES   0.0000
614 Si  32.1610  13.0660   0.0000 Si 1 RES   0.0000
615 O  32.1610  14.4420   0.4860 O 1 RES   0.0000
616 Si  32.1610  15.8170   0.9730 Si 1 RES   0.0000
617 O  33.3520  12.3790   0.4860 O 1 RES   0.0000
618 O  30.9700  12.3790   0.4860 O 1 RES   0.0000
619 O  32.1610  15.8170   2.4310 O 1 RES   0.0000
620 Si  32.1610  15.8170   3.8900 Si 1 RES   0.0000
621 O  32.1610  14.4420   4.3770 O 1 RES   0.0000
622 Si  32.1610  13.0660   4.8630 Si 1 RES   0.0000
623 O  33.3520  12.3790   4.3770 O 1 RES   0.0000
624 O  30.9700  12.3790   4.3770 O 1 RES   0.0000
625 Si  32.1610  13.0660   7.7810 Si 1 RES   0.0000
626 O  33.3520  12.3790   8.2670 O 1 RES   0.0000
627 O  30.9700  12.3790   8.2670 O 1 RES   0.0000
628 O  32.1610  14.4420   8.2670 O 1 RES   0.0000
629 Si  32.1610  15.8170   8.7530 Si 1 RES   0.0000
630 O  32.1610  15.8170  10.2120 O 1 RES   0.0000
631 O  36.9250  13.0660   6.3220 O 1 RES   0.0000
632 Si  36.9250  13.0660   0.0000 Si 1 RES   0.0000
633 O  36.9250  14.4420   0.4860 O 1 RES   0.0000
634 Si  36.9250  15.8170   0.9730 Si 1 RES   0.0000
635 O  38.1170  12.3790   0.4860 O 1 RES   0.0000
636 O  35.7340  12.3790   0.4860 O 1 RES   0.0000
637 O  36.9250  15.8170   2.4310 O 1 RES   0.0000
638 Si  36.9250  15.8170   3.8900 Si 1 RES   0.0000
639 O  36.9250  14.4420   4.3770 O 1 RES   0.0000
640 Si  36.9250  13.0660   4.8630 Si 1 RES   0.0000
641 O  38.1170  12.3790   4.3770 O 1 RES   0.0000
642 O  35.7340  12.3790   4.3770 O 1 RES   0.0000
643 Si  36.9250  13.0660   7.7810 Si 1 RES   0.0000
644 O  38.1170  12.3790   8.2670 O 1 RES   0.0000
645 O  35.7340  12.3790   8.2670 O 1 RES   0.0000
646 O  36.9250  14.4420   8.2670 O 1 RES   0.0000
647 Si  36.9250  15.8170   8.7530 Si 1 RES   0.0000
648 O  36.9250  15.8170  10.2120 O 1 RES   0.0000
649 O  39.3080   8.9400   6.3220 O 1 RES   0.0000
650 Si  39.3080   8.9400   0.0000 Si 1 RES   0.0000
651 O  39.3080  10.3160   0.4860 O 1 RES   0.0000
652 Si  39.3080  11.6910   0.9730 Si 1 RES   0.0000
653 O  40.4990   8.2530   0.4860 O 1 RES   0.0000
654 O  38.1170   8.2530   0.4860 O 1 RES   0.0000
655 O  39.3080  11.6910   2.4310 O 1 RES   0.0000
656 Si  39.3080  11.6910   3.8900 Si 1 RES   0.0000
657 O  39.3080  10.3160   4.3770 O 1 RES   0.0000
658 Si  39.3080   8.9400   4.8630 Si 1 RES   0.0000
659 O  40.4990   8.2530   4.3770 O 1 RES   0.0000
660 O  38.1170   8.2530   4.3770 O 1 RES   0.0000
661 Si  39.3080   8.9400   7.7810 Si 1 RES   0.0000
662 O  40.4990   8.2530   8.2670 O 1 RES   0.0000
663 O  38.1170   8.2530   8.2670 O 1 RES   0.0000
664 O  39.3080  10.3160   8.2670 O 1 RES   0.0000
665 Si  39.3080  11.6910   8.7530 Si 1 RES   0.0000
666 O  39.3080  11.6910  10.2120 O 1 RES   0.0000
667 O  44.0720   8.9400   6.3220 O 1 RES   0.0000
668 Si  44.0720   8.9400   0.0000 Si 1 RES   0.0000
669 O  44.0720  10.3160   0.4860 O 1 RES   0.0000
670 Si  44.0720  11.6910   0.9730 Si 1 RES   0.0000
671 O  45.2640   8.2530   0.4860 O 1 RES   0.0000
672 O  42.8810   8.2530   0.4860 O 1 RES   0.0000
673 O  44.0720  11.6910   2.4310 O 1 RES   0.0000
674 Si  44.0720  11.6910   3.8900 Si 1 RES   0.0000
675 O  44.0720  10.3160   4.3770 O 1 RES   0.0000
676 Si  44.0720   8.9400   4.8630 Si 1 RES   0.0000
677 O  45.2640   8.2530   4.3770 O 1 RES   0.0000
678 O  42.8810   8.2530   4.3770 O 1 RES   0.0000
679 Si  44.0720   8.9400   7.7810 Si 1 RES   0.0000
680 O  45.2640   8.2530   8.2670 O 1 RES   0.0000
681 O  42.8810   8.2530   8.2670 O 1 RES   0.0000
682 O  44.0720  10.3160   8.2670 O 1 RES   0.0000
683 Si  44.0720  11.6910   8.7530 Si 1 RES   0.0000
684 O  44.0720  11.6910  10.2120 O 1 RES   0.0000
685 O  41.6900  13.0660   6.3220 O 1 RES   0.0000
686 Si  41.6900  13.0660   0.0000 Si 1 RES   0.0000
687 O  41.6900  14.4420   0.4860 O 1 RES   0.0000
688 Si  41.6900  15.8170   0.9730 Si 1 RES   0.0000
689 O  42.8810  12.3790   0.4860 O 1 RES   0.0000
690 O  40.4990  12.3790   0.4860 O 1 RES   0.0000
691 O  41.6900  15.8170   2.4310 O 1 RES   0.0000
692 Si  41.6900  15.8170   3.8900 Si 1 RES   0.0000
693 O  41.6900  14.4420   4.3770 O 1 RES   0.0000
694 Si  41.6900  13.0660   4.8630 Si 1 RES   0.0000
695 O  42.8810  12.3790   4.3770 O 1 RES   0.0000
696 O  40.4990  12.3790   4.3770 O 1 RES   0.0000
697 Si  41.6900  13.0660   7.7810 Si 1 RES   0.0000
698 O  42.8810  12.3790   8.2670 O 1 RES   0.0000
699 O  40.4990  12.3790   8.2670 O 1 RES   0.0000
700 O  41.6900  14.4420   8.2670 O 1 RES   0.0000
701 Si  41.6900  15.8170   8.7530 Si 1 RES   0.0000
702 O  41.6900  15.8170  10.2120 O 1 RES   0.0000
703 O  46.4550  13.0660   6.3220 O 1 RES   0.0000
704 Si  46.4550  13.0660   0.0000 Si 1 RES   0.0000
705 O  46.4550  14.4420   0.4860 O 1 RES   0.0000
706 Si  46.4550  15.8170   0.9730 Si 1 RES   0.0000
707 O  -0.0430  12.3790   0.4860 O 1 RES   0.0000
708 O  45.2640  12.3790   0.4860 O 1 RES   0.0000
709 O  46.4550  15.8170   2.4310 O 1 RES   0.0000
710 Si  46.4550  15.8170   3.8900 Si 1 RES   0.0000
711 O  46.4550  14.4420   4.3770 O 1 RES   0.0000
712 Si  46.4550  13.0660   4.8630 Si 1 RES   0.0000
713 O  -0.0430  12.3790   4.3770 O 1 RES   0.0000
714 O  45.2640  12.3790   4.3770 O 1 RES   0.0000
715 Si  46.4550  13.0660   7.7810 Si 1 RES   0.0000
716 O  -0.0430  12.3790   8.2670 O 1 RES   0.0000
717 O  45.2640  12.3790   8.2670 O 1 RES   0.0000
718 O  46.4550  14.4420   8.2670 O 1 RES   0.0000
719 Si  46.4550  15.8170   8.7530 Si 1 RES   0.0000
720 O  46.4550  15.8170  10.2120 O 1 RES   0.0000
721 O   1.1910  17.1930   6.3220 O 1 RES   0.0000
722 Si   1.1910  17.1930   0.0000 Si 1 RES   0.0000
723 O   1.1910  18.5680   0.4860 O 1 RES   0.0000
724 Si   1.1910  19.9440   0.9730 Si 1 RES   0.0000
725 O   2.3820  16.5050   0.4860 O 1 RES   0.0000
726 O   0.0000  16.5050   0.4860 O 1 RES   0.0000
727 O   1.1910  19.9440   2.4310 O 1 RES   0.0000
728 Si   1.1910  19.9440   3.8900 Si 1 RES   0.0000
729 O   1.1910  18.5680   4.3770 O 1 RES   0.0000
730 Si   1.1910  17.1930   4.8630 Si 1 RES   0.0000
731 O   2.3820  16.5050   4.3770 O 1 RES   0.0000
732 O   0.0000  16.5050   4.3770 O 1 RES   0.0000
733 Si   1.1910  17.1930   7.7810 Si 1 RES   0.0000
734 O   2.3820  16.5050   8.2670 O 1 RES   0.0000
735 O   0.0000  16.5050   8.2670 O 1 RES   0.0000
736 O   1.1910  18.5680   8.2670 O 1 RES   0.0000
737 Si   1.1910  19.9440   8.7530 Si 1 RES   0.0000
738 O   1.1910  19.9440  10.2120 O 1 RES   0.0000
739 O   5.9560  17.1930   6.3220 O 1 RES   0.0000
740 Si   5.9560  17.1930   0.0000 Si 1 RES   0.0000
741 O   5.9560  18.5680   0.4860 O 1 RES   0.0000
742 Si   5.9560  19.9440   0.9730 Si 1 RES   0.0000
743 O   7.1470  16.5050   0.4860 O 1 RES   0.0000
744 O   4.7650  16.5050   0.4860 O 1 RES   0.0000
745 O   5.9560  19.9440   2.4310 O 1 RES   0.0000
746 Si   5.9560  19.9440   3.8900 Si 1 RES   0.0000
747 O   5.9560  18.5680   4.3770 O 1 RES   0.0000
748 Si   5.9560  17.1930   4.8630 Si 1 RES   0.0000
749 O   7.1470  16.5050   4.3770 O 1 RES   0.0000
750 O   4.7650  16.5050   4.3770 O 1 RES   0.0000
751 Si   5.9560  17.1930   7.7810 Si 1 RES   0.0000
752 O   7.1470  16.5050   8.2670 O 1 RES   0.0000
753 O   4.7650  16.5050   8.2670 O 1 RES   0.0000
754 O   5.9560  18.5680   8.2670 O 1 RES   0.0000
755 Si   5.9560  19.9440   8.7530 Si 1 RES   0.0000
756 O   5.9560  19.9440  10.2120 O 1 RES   0.0000
757 O   3.5730  21.3190   6.3220 O 1 RES   0.0000
758 Si   3.5730  21.3190   0.0000 Si 1 RES   0.0000
759 O   3.5730  22.6940   0.4860 O 1 RES   0.0000
760 Si   3.5730  24.0700   0.9730 Si 1 RES   0.0000
761 O   4.7650  20.6310   0.4860 O 1 RES   0.0000
762 O   2.3820  20.6310   0.4860 O 1 RES   0.0000
763 O   3.5730  24.0700   2.4310 O 1 RES   0.0000
764 Si   3.5730  24.0700   3.8900 Si 1 RES   0.0000
765 O   3.5730  22.6940   4.3770 O 1 RES   0.0000
766 Si   3.5730  21.3190   4.8630 Si 1 RES   0.0000
767 O   4.7650  20.6310   4.3770 O 1 RES   0.0000
768 O   2.3820  20.6310   4.3770 O 1 RES   0.0000
769 Si   3.5730  21.3190   7.7810 Si 1 RES   0.0000
770 O   4.7650  20.6310   8.2670 O 1 RES   0.0000
771 O   2.3820  20.6310   8.2670 O 1 RES   0.0000
772 O   3.5730  22.6940   8.2670 O 1 RES   0.0000
773 Si   3.5730  24.0700   8.7530 Si 1 RES   0.0000
774 O   3.5730  24.0700  10.2120 O 1 RES   0.0000
775 O   8.3380  21.3190   6.3220 O 1 RES   0.0000
776 Si   8.3380  21.3190   0.0000 Si 1 RES   0.0000
777 O   8.3380  22.6940   0.4860 O 1 RES   0.0000
778 Si   8.3380  24.0700   0.9730 Si 1 RES   0.0000
779 O   9.5290  20.6310   0.4860 O 1 RES   0.0000
780 O   7.1470  20.6310   0.4860 O 1 RES   0.0000
781 O   8.3380  24.0700   2.4310 O 1 RES   0.0000
782 Si   8.3380  24.0700   3.8900 Si 1 RES   0.0000
783 O   8.3380  22.6940   4.3770 O 1 RES   0.0000
784 Si   8.3380  21.3190   4.8630 Si 1 RES   0.0000
785 O   9.5290  20.6310   4.3770 O 1 RES   0.0000
786 O   7.1470  20.6310   4.3770 O 1 RES   0.0000
787 Si   8.3380  21.3190   7.7810 Si 1 RES   0.0000
788 O   9.5290  20.6310   8.2670 O 1 RES   0.0000
789 O   7.1470  20.6310   8.2670 O 1 RES   0.0000
790 O   8.3380  22.6940   8.2670 O 1 RES   0.0000
791 Si   8.3380  24.0700   8.7530 Si 1 RES   0.0000
792 O   8.3380  24.0700  10.2120 O 1 RES   0.0000
793 O  10.7200  17.1930   6.3220 O 1 RES   0.0000
794 Si  10.7200  17.1930   0.0000 Si 1 RES   0.0000
795 O  10.7200  18.5680   0.4860 O 1 RES   0.0000
796 Si  10.7200  19.9440   0.9730 Si 1 RES   0.0000
797 O  11.9120  16.5050   0.4860 O 1 RES   0.0000
798 O   9.5290  16.5050   0.4860 O 1 RES   0.0000
799 O  10.7200  19.9440   2.4310 O 1 RES   0.0000
800 Si  10.7200  19.9440   3.8900 Si 1 RES   0.0000
801 O  10.7200  18.5680   4.3770 O 1 RES   0.0000
802 Si  10.7200  17.1930   4.8630 Si 1 RES   0.0000
803 O  11.9120  16.5050   4.3770 O 1 RES   0.0000
804 O   9.5290  16.5050   4.3770 O 1 RES   0.0000
805 Si  10.7200  17.1930   7.7810 Si 1 RES   0.0000
806 O  11.9120  16.5050   8.2670 O 1 RES   0.0000
807 O   9.5290  16.5050   8.2670 O 1 RES   0.0000
808 O  10.7200  18.5680   8.2670 O 1 RES   0.0000
809 Si  10.7200  19.9440   8.7530 Si 1 RES   0.0000
810 O  10.7200  19.9440  10.2120 O 1 RES   0.0000
811 O  15.4850  17.1930   6.3220 O 1 RES   0.0000
812 Si  15.4850  17.1930   0.0000 Si 1 RES   0.0000
813 O  15.4850  18.5680   0.4860 O 1 RES   0.0000
814 Si  15.4850  19.9440   0.9730 Si 1 RES   0.0000
815 O  16.6760  16.5050   0.4860 O 1 RES   0.0000
816 O  14.2940  16.5050   0.4860 O 1 RES   0.0000
817 O  15.4850  19.9440   2.4310 O 1 RES   0.0000
818 Si  15.4850  19.9440   3.8900 Si 1 RES   0.0000
819 O  15.4850  18.5680   4.3770 O 1 RES   0.0000
820 Si  15.4850  17.1930   4.8630 Si 1 RES   0.0000
821 O  16.6760  16.5050   4.3770 O 1 RES   0.0000
822 O  14.2940  16.5050   4.3770 O 1 RES   0.0000
823 Si  15.4850  17.1930   7.7810 Si 1 RES   0.0000
824 O  16.6760  16.5050   8.2670 O 1 RES   0.0000
825 O  14.2940  16.5050   8.2670 O 1 RES   0.0000
826 O  15.4850  18.5680   8.2670 O 1 RES   0.0000
827 Si  15.4850  19.9440   8.7530 Si 1 RES   0.0000
828 O  15.4850  19.9440  10.2120 O 1 RES   0.0000
829 O  13.1030  21.3190   6.3220 O 1 RES   0.0000
830 Si  13.1030  21.3190   0.0000 Si 1 RES   0.0000
831 O  13.1030  22.6940   0.4860 O 1 RES   0.0000
832 Si  13.1030  24.0700   0.9730 Si 1 RES   0.0000
833 O  14.2940  20.6310   0.4860 O 1 RES   0.0000
834 O  11.9120  20.6310   0.4860 O 1 RES   0.0000
835 O  13.1030  24.0700   2.4310 O 1 RES   0.0000
836 Si  13.1030  24.0700   3.8900 Si 1 RES   0.0000
837 O  13.1030  22.6940   4.3770 O 1 RES   0.0000
838 Si  13.1030  21.3190   4.8630 Si 1 RES   0.0000
839 O  14.2940  20.6310   4.3770 O 1 RES   0.0000
840 O  11.9120  20.6310   4.3770 O 1 RES   0.0000
841 Si  13.1030  21.3190   7.7810 Si 1 RES   0.0000
842 O  14.2940  20.6310   8.2670 O 1 RES   0.0000
843 O  11.9120  20.6310   8.2670 O 1 RES   0.0000
844 O  13.1030  22.6940   8.2670 O 1 RES   0.0000
845 Si  13.1030  24.0700   8.7530 Si 1 RES   0.0000
846 O  13.1030  24.0700  10.2120 O 1 RES   0.0000
847 O  17.8670  21.3190   6.3220 O 1 RES   0.0000
848 Si  17.8670  21.3190   0.0000 Si 1 RES   0.0000
849 O  17.8670  22.6940   0.4860 O 1 RES   0.0000
850 Si  17.8670  24.0700   0.9730 Si 1 RES   0.0000
851 O  19.0580  20.6310   0.4860 O 1 RES   0.0000
852 O  16.6760  20.6310   0.4860 O 1 RES   0.0000
853 O  17.8670  24.0700   2.4310 O 1 RES   0.0000
854 Si  17.8670  24.0700   3.8900 Si 1 RES   0.0000
855 O  17.8670  22.6940   4.3770 O 1 RES   0.0000
856 Si  17.8670  21.3190   4.8630 Si 1 RES   0.0000
857 O  19.0580  20.6310   4.3770 O 1 RES   0.0000
858 O  16.6760  20.6310   4.3770 O 1 RES   0.0000
859 Si  17.8670  21.3190   7.7810 Si 1 RES   0.0000
860 O  19.0580  20.6310   8.2670 O 1 RES   0.0000
861 O  16.6760  20.6310   8.2670 O 1 RES   0.0000
862 O  17.8670  22.6940   8.2670 O 1 RES   0.0000
863 Si  17.8670  24.0700   8.7530 Si 1 RES   0.0000
864 O  17.8670  24.0700  10.2120 O 1 RES   0.0000
865 O  20.2500  17.1930   6.3220 O 1 RES   0.0000
866 Si  20.2500  17.1930   0.0000 Si 1 RES   0.0000
867 O  20.2500  18.5680   0.4860 O 1 RES   0.0000
868 Si  20.2500  19.9440   0.9730 Si 1 RES   0.0000
869 O  21.4410  16.5050   0.4860 O 1 RES   0.0000
870 O  19.0580  16.5050   0.4860 O 1 RES   0.0000
871 O  20.2500  19.9440   2.4310 O 1 RES   0.0000
872 Si  20.2500  19.9440   3.8900 Si 1 RES   0.0000
873 O  20.2500  18.5680   4.3770 O 1 RES   0.0000
874 Si  20.2500  17.1930   4.8630 Si 1 RES   0.0000
875 O  21.4410  16.5050   4.3770 O 1 RES   0.0000
876 O  19.0580  16.5050   4.3770 O 1 RES   0.0000
877 Si  20.2500  17.1930   7.7810 Si 1 RES   0.0000
878 O  21.4410  16.5050   8.2670 O 1 RES   0.0000
879 O  19.0580  16.5050   8.2670 O 1 RES   0.0000
880 O  20.2500  18.5680   8.2670 O 1 RES   0.0000
881 Si  20.2500  19.9440   8.7530 Si 1 RES   0.0000
882 O  20.2500  19.9440  10.2120 O 1 RES   0.0000
883 O  25.0140  17.1930   6.3220 O 1 RES   0.0000
884 Si  25.0140  17.1930   0.0000 Si 1 RES   0.0000
885 O  25.0140  18.5680   0.4860 O 1 RES   0.0000
886 Si  25.0140  19.9440   0.9730 Si 1 RES   0.0000
887 O  26.2050  16.5050   0.4860 O 1 RES   0.0000
888 O  23.8230  16.5050   0.4860 O 1 RES   0.0000
889 O  25.0140  19.9440   2.4310 O 1 RES   0.0000
890 Si  25.0140  19.9440   3.8900 Si 1 RES   0.0000
891 O  25.0140  18.5680   4.3770 O 1 RES   0.0000
892 Si  25.0140  17.1930   4.8630 Si 1 RES   0.0000
893 O  26.2050  16.5050   4.3770 O 1 RES   0.0000
894 O  23.8230  16.5050   4.3770 O 1 RES   0.0000
895 Si  25.0140  17.1930   7.7810 Si 1 RES   0.0000
896 O  26.2050  16.5050   8.2670 O 1 RES   0.0000
897 O  23.8230  16.5050   8.2670 O 1 RES   0.0000
898 O  25.0140  18.5680   8.2670 O 1 RES   0.0000
899 Si  25.0140  19.9440   8.7530 Si 1 RES   0.0000
900 O  25.0140  19.9440  10.2120 O 1 RES   0.0000
901 O  22.6320  21.3190   6.3220 O 1 RES   0.0000
902 Si  22.6320  21.3190   0.0000 Si 1 RES   0.0000
903 O  22.6320  22.6940   0.4860 O 1 RES   0.0000
904 Si  22.6320  24.0700   0.9730 Si 1 RES   0.0000
905 O  23.8230  20.6310   0.4860 O 1 RES   0.0000
906 O  21.4410  20.6310   0.4860 O 1 RES   0.0000
907 O  22.6320  24.0700   2.4310 O 1 RES   0.0000
908 Si  22.6320  24.0700   3.8900 Si 1 RES   0.0000
909 O  22.6320  22.6940   4.3770 O 1 RES   0.0000
910 Si  22.6320  21.3190   4.8630 Si 1 RES   0.0000
911 O  23.8230  20.6310   4.3770 O 1 RES   0.0000
912 O  21.4410  20.6310   4.3770 O 1 RES   0.0000
913 Si  22.6320  21.3190   7.7810 Si 1 RES   0.0000
914 O  23.8230  20.6310   8.2670 O 1 RES   0.0000
915 O  21.4410  20.6310   8.2670 O 1 RES   0.0000
916 O  22.6320  22.6940   8.2670 O 1 RES   0.0000
917 Si  22.6320  24.0700   8.7530 Si 1 RES   0.0000
918 O  22.6320  24.0700  10.2120 O 1 RES   0.0000
919 O  27.3960  21.3190   6.3220 O 1 RES   0.0000
920 Si  27.3960  21.3190   0.0000 Si 1 RES   0.0000
921 O  27.3960  22.6940   0.4860 O 1 RES   0.0000
922 Si  27.3960  24.0700   0.9730 Si 1 RES   0.0000
923 O  28.5870  20.6310   0.4860 O 1 RES   0.0000
924 O  26.2050  20.6310   0.4860 O 1 RES   0.0000
925 O  27.3960  24.0700   2.4310 O 1 RES   0.0000
926 Si  27.3960  24.0700   3.8900 Si 1 RES   0.0000
927 O  27.3960  22.6940   4.3770 O 1 RES   0.0000
928 Si  27.3960  21.3190   4.8630 Si 1 RES   0.0000
929 O  28.5870  20.6310   4.3770 O 1 RES   0.0000
930 O  26.2050  20.6310   4.3770 O 1 RES   0.0000
931 Si  27.3960  21.3190   7.7810 Si 1 RES   0.0000
932 O  28.5870  20.6310   8.2670 O 1 RES   0.0000
933 O  26.2050  20.6310   8.2670 O 1 RES   0.0000
934 O  27.3960  22.6940   8.2670 O 1 RES   0.0000
935 Si  27.3960  24.0700   8.7530 Si 1 RES   0.0000
936 O  27.3960  24.0700  10.2120 O 1 RES   0.0000
937 O  29.7790  17.1930   6.3220 O 1 RES   0.0000
938 Si  29.7790  17.1930   0.0000 Si 1 RES   0.0000
939 O  29.7790  18.5680   0.4860 O 1 RES   0.0000
940 Si  29.7790  19.9440   0.9730 Si 1 RES   0.0000
941 O  30.9700  16.5050   0.4860 O 1 RES   0.0000
942 O  28.5870  16.5050   0.4860 O 1 RES   0.0000
943 O  29.7790  19.9440   2.4310 O 1 RES   0.0000
944 Si  29.7790  19.9440   3.8900 Si 1 RES   0.0000
945 O  29.7790  18.5680   4.3770 O 1 RES   0.0000
946 Si  29.7790  17.1930   4.8630 Si 1 RES   0.0000
947 O  30.9700  16.5050   4.3770 O 1 RES   0.0000
948 O  28.5870  16.5050   4.3770 O 1 RES   0.0000
949 Si  29.7790  17.1930   7.7810 Si 1 RES   0.0000
950 O  30.9700  16.5050   8.2670 O 1 RES   0.0000
951 O  28.5870  16.5050   8.2670 O 1 RES   0.0000
952 O  29.7790  18.5680   8.2670 O 1 RES   0.0000
953 Si  29.7790  19.9440   8.7530 Si 1 RES   0.0000
954 O  29.7790  19.9440  10.2120 O 1 RES   0.0000
955 O  34.5430  17.1930   6.3220 O 1 RES   0.0000
956 Si  34.5430  17.1930   0.0000 Si 1 RES   0.0000
957 O  34.5430  18.5680   0.4860 O 1 RES   0.0000
958 Si  34.5430  19.9440   0.9730 Si 1 RES   0.0000
959 O  35.7340  16.5050   0.4860 O 1 RES   0.0000
960 O  33.3520  16.5050   0.4860 O 1 RES   0.0000
961 O  34.5430  19.9440   2.4310 O 1 RES   0.0000
962 Si  34.5430  19.9440   3.8900 Si 1 RES   0.0000
963 O  34.5430  18.5680   4.3770 O 1 RES   0.0000
964 Si  34.5430  17.1930   4.8630 Si 1 RES   0.0000
965 O  35.7340  16.5050   4.3770 O 1 RES   0.0000
966 O  33.3520  16.5050   4.3770 O 1 RES   0.0000
967 Si  34.5430  17.1930   7.7810 Si 1 RES   0.0000
968 O  35.7340  16.5050   8.2670 O 1 RES   0.0000
969 O  33.3520  16.5050   8.2670 O 1 RES   0.0000
970 O  34.5430  18.5680   8.2670 O 1 RES   0.0000
971 Si  34.5430  19.9440   8.7530 Si 1 RES   0.0000
972 O  34.5430  19.9440  10.2120 O 1 RES   0.0000
973 O  32.1610  21.3190   6.3220 O 1 RES   0.0000
974 Si  32.1610  21.3190   0.0000 Si 1 RES   0.0000
975 O  32.1610  22.6940   0.4860 O 1 RES   0.0000
976 Si  32.1610  24.0700   0.9730 Si 1 RES   0.0000
977 O  33.3520  20.6310   0.4860 O 1 RES   0.0000
978 O  30.9700  20.6310   0.4860 O 1 RES   0.0000
979 O  32.1610  24.0700   2.4310 O 1 RES   0.0000
980 Si  32.1610  24.0700   3.8900 Si 1 RES   0.0000
981 O  32.1610  22.6940   4.3770 O 1 RES   0.0000
982 Si  32.1610  21.3190   4.8630 Si 1 RES   0.0000
983 O  33.3520  20.6310   4.3770 O 1 RES   0.0000
984 O  30.9700  20.6310   4.3770 O 1 RES   0.0000
985 Si  32.1610  21.3190   7.7810 Si 1 RES   0.0000
986 O  33.3520  20.6310   8.2670 O 1 RES   0.0000
987 O  30.9700  20.6310   8.2670 O 1 RES   0.0000
988 O  32.1610  22.6940   8.2670 O 1 RES   0.0000
989 Si  32.1610  24.0700   8.7530 Si 1 RES   0.0000
990 O  32.1610  24.0700  10.2120 O 1 RES   0.0000
991 O  36.9250  21.3190   6.3220 O 1 RES   0.0000
992 Si  36.9250  21.3190   0.0000 Si 1 RES   0.0000
993 O  36.9250  22.6940   0.4860 O 1 RES   0.0000
994 Si  36.9250  24.0700   0.9730 Si 1 RES   0.0000
995 O  38.1170  20.6310   0.4860 O 1 RES   0.0000
996 O  35.7340  20.6310   0.4860 O 1 RES   0.0000
997 O  36.9250  24.0700   2.4310 O 1 RES   0.0000
998 Si  36.9250  24.0700   3.8900 Si 1 RES   0.0000
999 O  36.9250  22.6940   4.3770 O 1 RES   0.0000
1000 Si  36.9250  21.3190   4.8630 Si 1 RES   0.0000
1001 O  38.1170  20.6310   4.3770 O 1 RES   0.0000
1002 O  35.7340  20.6310   4.3770 O 1 RES   0.0000
1003 Si  36.9250  21.3190   7.7810 Si 1 RES   0.0000
1004 O  38.1170  20.6310   8.2670 O 1 RES   0.0000
1005 O  35.7340  20.6310   8.2670 O 1 RES   0.0000
1006 O  36.9250  22.6940   8.2670 O 1 RES   0.0000
1007 Si  36.9250  24.0700   8.7530 Si 1 RES   0.0000
1008 O  36.9250  24.0700  10.2120 O 1 RES   0.0000
1009 O  39.3080  17.1930   6.3220 O 1 RES   0.0000
1010 Si  39.3080  17.1930   0.0000 Si 1 RES   0.0000
1011 O  39.3080  18.5680   0.4860 O 1 RES   0.0000
1012 Si  39.3080  19.9440   0.9730 Si 1 RES   0.0000
1013 O  40.4990  16.5050   0.4860 O 1 RES   0.0000
1014 O  38.1170  16.5050   0.4860 O 1 RES   0.0000
1015 O  39.3080  19.9440   2.4310 O 1 RES   0.0000
1016 Si  39.3080  19.9440   3.8900 Si 1 RES   0.0000
1017 O  39.3080  18.5680   4.3770 O 1 RES   0.0000
1018 Si  39.3080  17.1930   4.8630 Si 1 RES   0.0000
1019 O  40.4990  16.5050   4.3770 O 1 RES   0.0000
1020 O  38.1170  16.5050   4.3770 O 1 RES   0.0000
1021 Si  39.3080  17.1930   7.7810 Si 1 RES   0.0000
1022 O  40.4990  16.5050   8.2670 O 1 RES   0.0000
1023 O  38.1170  16.5050   8.2670 O 1 RES   0.0000
1024 O  39.3080  18.5680   8.2670 O 1 RES   0.0000
1025 Si  39.3080  19.9440   8.7530 Si 1 RES   0.0000
1026 O  39.3080  19.9440  10.2120 O 1 RES   0.0000
1027 O  44.0720  17.1930   6.3220 O 1 RES   0.0000
1028 Si  44.0720  17.1930   0.0000 Si 1 RES   0.0000
1029 O  44.0720  18.5680   0.4860 O 1 RES   0.0000
1030 Si  44.0720  19.9440   0.9730 Si 1 RES   0.0000
1031 O  45.2640  16.5050   0.4860 O 1 RES   0.0000
1032 O  42.8810  16.5050   0.4860 O 1 RES   0.0000
1033 O  44.0720  19.9440   2.4310 O 1 RES   0.0000
1034 Si  44.0720  19.9440   3.8900 Si 1 RES   0.0000
1035 O  44.0720  18.5680   4.3770 O 1 RES   0.0000
1036 Si  44.0720  17.1930   4.8630 Si 1 RES   0.0000
1037 O  45.2640  16.5050   4.3770 O 1 RES   0.0000
1038 O  42.8810  16.5050   4.3770 O 1 RES   0.0000
1039 Si  44.0720  17.1930   7.7810 Si 1 RES   0.0000
1040 O  45.2640  16.5050   8.2670 O 1 RES   0.0000
1041 O  42.8810  16.5050   8.2670 O 1 RES   0.0000
1042 O  44.0720  18.5680   8.2670 O 1 RES   0.0000
1043 Si  44.0720  19.9440   8.7530 Si 1 RES   0.0000
1044 O  44.0720  19.9440  10.2120 O 1 RES   0.0000
1045 O  41.6900  21.3190   6.3220 O 1 RES   0.0000
1046 Si  41.6900  21.3190   0.0000 Si 1 RES   0.0000
1047 O  41.6900  22.6940   0.4860 O 1 RES   0.0000
1048 Si  41.6900  24.0700   0.9730 Si 1 RES   0.0000
1049 O  42.8810  20.6310   0.4860 O 1 RES   0.0000
1050 O  40.4990  20.6310   0.4860 O 1 RES   0.0000
1051 O  41.6900  24.0700   2.4310 O 1 RES   0.0000
1052 Si  41.6900  24.0700   3.8900 Si 1 RES   0.0000
1053 O  41.6900  22.6940   4.3770 O 1 RES   0.0000
1054 Si  41.6900  21.3190   4.8630 Si 1 RES   0.0000
1055 O  42.8810  20.6310   4.3770 O 1 RES   0.0000
1056 O  40.4990  20.6310   4.3770 O 1 RES   0.0000
1057 Si  41.6900  21.3190   7.7810 Si 1 RES   0.0000
1058 O  42.8810  20.6310   8.2670 O 1 RES   0.0000
1059 O  40.4990  20.6310   8.2670 O 1 RES   0.0000
1060 O  41.6900  22.6940   8.2670 O 1 RES   0.0000
1061 Si  41.6900  24.0700   8.7530 Si 1 RES   0.0000
1062 O  41.6900  24.0700  10.2120 O 1 RES   0.0000
1063 O  46.4550  21.3190   6.3220 O 1 RES   0.0000
1064 Si  46.4550  21.3190   0.0000 Si 1 RES   0.0000
1065 O  46.4550  22.6940   0.4860 O 1 RES   0.0000
1066 Si  46.4550  24.0700   0.9730 Si 1 RES   0.0000
1067 O  -0.0430  20.6310   0.4860 O 1 RES   0.0000
1068 O  45.2640  20.6310   0.4860 O 1 RES   0.0000
1069 O  46.4550  24.0700   2.4310 O 1 RES   0.0000
1070 Si  46.4550  24.0700   3.8900 Si 1 RES   0.0000
1071 O  46.4550  22.6940   4.3770 O 1 RES   0.0000
1072 Si  46.4550  21.3190   4.8630 Si 1 RES   0.0000
1073 O  -0.0430  20.6310   4.3770 O 1 RES   0.0000
1074 O  45.2640  20.6310   4.3770 O 1 RES   0.0000
1075 Si  46.4550  21.3190   7.7810 Si 1 RES   0.0000
1076 O  -0.0430  20.6310   8.2670 O 1 RES   0.0000
1077 O  45.2640  20.6310   8.2670 O 1 RES   0.0000
1078 O  46.4550  22.6940   8.2670 O 1 RES   0.0000
1079 Si  46.4550  24.0700   8.7530 Si 1 RES   0.0000
1080 O  46.4550  24.0700  10.2120 O 1 RES   0.0000
1081 O   1.1910  25.4450   6.3220 O 1 RES   0.0000
1082 Si   1.1910  25.4450   0.0000 Si 1 RES   0.0000
1083 O   1.1910  26.8210   0.4860 O 1 RES   0.0000
1084 Si   1.1910  28.1960   0.9730 Si 1 RES   0.0000
1085 O   2.3820  24.7580   0.4860 O 1 RES   0.0000
1086 O   0.0000  24.7580   0.4860 O 1 RES   0.0000
1087 O   1.1910  28.1960   2.4310 O 1 RES   0.0000
1088 Si   1.1910  28.1960   3.8900 Si 1 RES   0.0000
1089 O   1.1910  26.8210   4.3770 O 1 RES   0.0000
1090 Si   1.1910  25.4450   4.8630 Si 1 RES   0.0000
1091 O   2.3820  24.7580   4.3770 O 1 RES   0.0000
1092 O   0.0000  24.7580   4.3770 O 1 RES   0.0000
1093 Si   1.1910  25.4450   7.7810 Si 1 RES   0.0000
1094 O   2.3820  24.7580   8.2670 O 1 RES   0.0000
1095 O   0.0000  24.7580   8.2670 O 1 RES   0.0000
1096 O   1.1910  26.8210   8.2670 O 1 RES   0.0000
1097 Si   1.1910  28.1960   8.7530 Si 1 RES   0.0000
1098 O   1.1910  28.1960  10.2120 O 1 RES   0.0000
1099 O   5.9560  25.4450   6.3220 O 1 RES   0.0000
1100 Si   5.9560  25.4450   0.0000 Si 1 RES   0.0000
1101 O   5.9560  26.8210   0.4860 O 1 RES   0.0000
1102 Si   5.9560  28.1960   0.9730 Si 1 RES   0.0000
1103 O   7.1470  24.7580   0.4860 O 1 RES   0.0000
1104 O   4.7650  24.7580   0.4860 O 1 RES   0.0000
1105 O   5.9560  28.1960   2.4310 O 1 RES   0.0000
1106 Si   5.9560  28.1960   3.8900 Si 1 RES   0.0000
1107 O   5.9560  26.8210   4.3770 O 1 RES   0.0000
1108 Si   5.9560  25.4450   4.8630 Si 1 RES   0.0000
1109 O   7.1470  24.7580   4.3770 O 1 RES   0.0000
1110 O   4.7650  24.7580   4.3770 O 1 RES   0.0000
1111 Si   5.9560  25.4450   7.7810 Si 1 RES   0.0000
1112 O   7.1470  24.7580   8.2670 O 1 RES   0.0000
1113 O   4.7650  24.7580   8.2670 O 1 RES   0.0000
1114 O   5.9560  26.8210   8.2670 O 1 RES   0.0000
1115 Si   5.9560  28.1960   8.7530 Si 1 RES   0.0000
1116 O   5.9560  28.1960  10.2120 O 1 RES   0.0000
1117 O   3.5730  29.5720   6.3220 O 1 RES   0.0000
1118 Si   3.5730  29.5720   0.0000 Si 1 RES   0.0000
1119 O   3.5730  30.9470   0.4860 O 1 RES   0.0000
1120 Si   3.5730  32.3220   0.9730 Si 1 RES   0.0000
1121 O   4.7650  28.8840   0.4860 O 1 RES   0.0000
1122 O   2.3820  28.8840   0.4860 O 1 RES   0.0000
1123 O   3.5730  32.3220   2.4310 O 1 RES   0.0000
1124 Si   3.5730  32.3220   3.8900 Si 1 RES   0.0000
1125 O   3.5730  30.9470   4.3770 O 1 RES   0.0000
1126 Si   3.5730  29.5720   4.8630 Si 1 RES   0.0000
1127 O   4.7650  28.8840   4.3770 O 1 RES   0.0000
1128 O   2.3820  28.8840   4.3770 O 1 RES   0.0000
1129 Si   3.5730  29.5720   7.7810 Si 1 RES   0.0000
1130 O   4.7650  28.8840   8.2670 O 1 RES   0.0000
1131 O   2.3820  28.8840   8.2670 O 1 RES   0.0000
1132 O   3.5730  30.9470   8.2670 O 1 RES   0.0000
1133 Si   3.5730  32.3220   8.7530 Si 1 RES   0.0000
1134 O   3.5730  32.3220  10.2120 O 1 RES   0.0000
1135 O   8.3380  29.5720   6.3220 O 1 RES   0.0000
1136 Si   8.3380  29.5720   0.0000 Si 1 RES   0.0000
1137 O   8.3380  30.9470   0.4860 O 1 RES   0.0000
1138 Si   8.3380  32.3220   0.9730 Si 1 RES   0.0000
1139 O   9.5290  28.8840   0.4860 O 1 RES   0.0000
1140 O   7.1470  28.8840   0.4860 O 1 RES   0.0000
1141 O   8.3380  32.3220   2.4310 O 1 RES   0.0000
1142 Si   8.3380  32.3220   3.8900 Si 1 RES   0.0000
1143 O   8.3380  30.9470   4.3770 O 1 RES   0.0000
1144 Si   8.3380  29.5720   4.8630 Si 1 RES   0.0000
1145 O   9.5290  28.8840   4.3770 O 1 RES   0.0000
1146 O   7.1470  28.8840   4.3770 O 1 RES   0.0000
1147 Si   8.3380  29.5720   7.7810 Si 1 RES   0.0000
1148 O   9.5290  28.8840   8.2670 O 1 RES   0.0000
1149 O   7.1470  28.8840   8.2670 O 1 RES   0.0000
1150 O   8.3380  30.9470   8.2670 O 1 RES   0.0000
1151 Si   8.3380  32.3220   8.7530 Si 1 RES   0.0000
1152 O   8.3380  32.3220  10.2120 O 1 RES   0.0000
1153 O  10.7200  25.4450   6.3220 O 1 RES   0.0000
1154 Si  10.7200  25.4450   0.0000 Si 1 RES   0.0000
1155 O  10.7200  26.8210   0.4860 O 1 RES   0.0000
1156 Si  10.7200  28.1960   0.9730 Si 1 RES   0.0000
1157 O  11.9120  24.7580   0.4860 O 1 RES   0.0000
1158 O   9.5290  24.7580   0.4860 O 1 RES   0.0000
1159 O  10.7200  28.1960   2.4310 O 1 RES   0.0000
1160 Si  10.7200  28.1960   3.8900 Si 1 RES   0.0000
1161 O  10.7200  26.8210   4.3770 O 1 RES   0.0000
1162 Si  10.7200  25.4450   4.8630 Si 1 RES   0.0000
1163 O  11.9120  24.7580   4.3770 O 1 RES   0.0000
1164 O   9.5290  24.7580   4.3770 O 1 RES   0.0000
1165 Si  10.7200  25.4450   7.7810 Si 1 RES   0.0000
1166 O  11.9120  24.7580   8.2670 O 1 RES   0.0000
1167 O   9.5290  24.7580   8.2670 O 1 RES   0.0000
1168 O  10.7200  26.8210   8.2670 O 1 RES   0.0000
1169 Si  10.7200  28.1960   8.7530 Si 1 RES   0.0000
1170 O  10.7200  28.1960  10.2120 O 1 RES   0.0000
1171 O  15.4850  25.4450   6.3220 O 1 RES   0.0000
1172 Si  15.4850  25.4450   0.0000 Si 1 RES   0.0000
1173 O  15.4850  26.8210   0.4860 O 1 RES   0.0000
1174 Si  15.4850  28.1960   0.9730 Si 1 RES   0.0000
1175 O  16.6760  24.7580   0.4860 O 1 RES   0.0000
1176 O  14.2940  24.7580   0.4860 O 1 RES   0.0000
1177 O  15.4850  28.1960   2.4310 O 1 RES   0.0000
1178 Si  15.4850  28.1960   3.8900 Si 1 RES   0.0000
1179 O  15.4850  26.8210   4.3770 O 1 RES   0.0000
1180 Si  15.4850  25.4450   4.8630 Si 1 RES   0.0000
1181 O  16.6760  24.7580   4.3770 O 1 RES   0.0000
1182 O  14.2940  24.7580   4.3770 O 1 RES   0.0000
1183 Si  15.4850  25.4450   7.7810 Si 1 RES   0.0000
1184 O  16.6760  24.7580   8.2670 O 1 RES   0.0000
1185 O  14.2940  24.7580   8.2670 O 1 RES   0.0000
1186 O  15.4850  26.8210   8.2670 O 1 RES   0.0000
1187 Si  15.4850  28.1960   8.7530 Si 1 RES   0.0000
1188 O  15.4850  28.1960  10.2120 O 1 RES   0.0000
1189 O  13.1030  29.5720   6.3220 O 1 RES   0.0000
1190 Si  13.1030  29.5720   0.0000 Si 1 RES   0.0000
1191 O  13.1030  30.9470   0.4860 O 1 RES   0.0000
1192 Si  13.1030  32.3220   0.9730 Si 1 RES   0.0000
1193 O  14.2940  28.8840   0.4860 O 1 RES   0.0000
1194 O  11.9120  28.8840   0.4860 O 1 RES   0.0000
1195 O  13.1030  32.3220   2.4310 O 1 RES   0.0000
1196 Si  13.1030  32.3220   3.8900 Si 1 RES   0.0000
1197 O  13.1030  30.9470   4.3770 O 1 RES   0.0000
1198 Si  13.1030  29.5720   4.8630 Si 1 RES   0.0000
1199 O  14.2940  28.8840   4.3770 O 1 RES   0.0000
1200 O  11.9120  28.8840   4.3770 O 1 RES   0.0000
1201 Si  13.1030  29.5720   7.7810 Si 1 RES   0.0000
1202 O  14.2940  28.8840   8.2670 O 1 RES   0.0000
1203 O  11.9120  28.8840   8.2670 O 1 RES   0.0000
1204 O  13.1030  30.9470   8.2670 O 1 RES   0.0000
1205 Si  13.1030  32.3220   8.7530 Si 1 RES   0.0000
1206 O  13.1030  32.3220  10.2120 O 1 RES   0.0000
1207 O  17.8670  29.5720   6.3220 O 1 RES   0.0000
1208 Si  17.8670  29.5720   0.0000 Si 1 RES   0.0000
1209 O  17.8670  30.9470   0.4860 O 1 RES   0.0000
1210 Si  17.8670  32.3220   0.9730 Si 1 RES   0.0000
1211 O  19.0580  28.8840   0.4860 O 1 RES   0.0000
1212 O  16.6760  28.8840   0.4860 O 1 RES   0.0000
1213 O  17.8670  32.3220   2.4310 O 1 RES   0.0000
1214 Si  17.8670  32.3220   3.8900 Si 1 RES   0.0000
1215 O  17.8670  30.9470   4.3770 O 1 RES   0.0000
1216 Si  17.8670  29.5720   4.8630 Si 1 RES   0.0000
1217 O  19.0580  28.8840   4.3770 O 1 RES   0.0000
1218 O  16.6760  28.8840   4.3770 O 1 RES   0.0000
1219 Si  17.8670  29.5720   7.7810 Si 1 RES   0.0000
1220 O  19.0580  28.8840   8.2670 O 1 RES   0.0000
1221 O  16.6760  28.8840   8.2670 O 1 RES   0.0000
1222 O  17.8670  30.9470   8.2670 O 1 RES   0.0000
1223 Si  17.8670  32.3220   8.7530 Si 1 RES   0.0000
1224 O  17.8670  32.3220  10.2120 O 1 RES   0.0000
1225 O  20.2500  25.4450   6.3220 O 1 RES   0.0000
1226 Si  20.2500  25.4450   0.0000 Si 1 RES   0.0000
1227 O  20.2500  26.8210   0.4860 O 1 RES   0.0000
1228 Si  20.2500  28.1960   0.9730 Si 1 RES   0.0000
1229 O  21.4410  24.7580   0.4860 O 1 RES   0.0000
1230 O  19.0580  24.7580   0.4860 O 1 RES   0.0000
1231 O  20.2500  28.1960   2.4310 O 1 RES   0.0000
1232 Si  20.2500  28.1960   3.8900 Si 1 RES   0.0000
1233 O  20.2500  26.8210   4.3770 O 1 RES   0.0000
1234 Si  20.2500  25.4450   4.8630 Si 1 RES   0.0000
1235 O  21.4410  24.7580   4.3770 O 1 RES   0.0000
1236 O  19.0580  24.7580   4.3770 O 1 RES   0.0000
1237 Si  20.2500  25.4450   7.7810 Si 1 RES   0.0000
1238 O  21.4410  24.7580   8.2670 O 1 RES   0.0000
1239 O  19.0580  24.7580   8.2670 O 1 RES   0.0000
1240 O  20.2500  26.8210   8.2670 O 1 RES   0.0000
1241 Si  20.2500  28.1960   8.7530 Si 1 RES   0.0000
1242 O  20.2500  28.1960  10.2120 O 1 RES   0.0000
1243 O  25.0140  25.4450   6.3220 O 1 RES   0.0000
1244 Si  25.0140  25.4450   0.0000 Si 1 RES   0.0000
1245 O  25.0140  26.8210   0.4860 O 1 RES   0.0000
1246 Si  25.0140  28.1960   0.9730 Si 1 RES   0.0000
1247 O  26.2050  24.7580   0.4860 O 1 RES   0.0000
1248 O  23.8230  24.7580   0.4860 O 1 RES   0.0000
1249 O  25.0140  28.1960   2.4310 O 1 RES   0.0000
1250 Si  25.0140  28.1960   3.8900 Si 1 RES   0.0000
1251 O  25.0140  26.8210   4.3770 O 1 RES   0.0000
1252 Si  25.0140  25.4450   4.8630 Si 1 RES   0.0000
1253 O  26.2050  24.7580   4.3770 O 1 RES   0.0000
1254 O  23.8230  24.7580   4.3770 O 1 RES   0.0000
1255 Si  25.0140  25.4450   7.7810 Si 1 RES   0.0000
1256 O  26.2050  24.7580   8.2670 O 1 RES   0.0000
1257 O  23.8230  24.7580   8.2670 O 1 RES   0.0000
1258 O  25.0140  26.8210   8.2670 O 1 RES   0.0000
1259 Si  25.0140  28.1960   8.7530 Si 1 RES   0.0000
1260 O  25.0140  28.1960  10.2120 O 1 RES   0.0000
1261 O  22.6320  29.5720   6.3220 O 1 RES   0.0000
1262 Si  22.6320  29.5720   0.0000 Si 1 RES   0.0000
1263 O  22.6320  30.9470   0.4860 O 1 RES   0.0000
1264 Si  22.6320  32.3220   0.9730 Si 1 RES   0.0000
1265 O  23.8230  28.8840   0.4860 O 1 RES   0.0000
1266 O  21.4410  28.8840   0.4860 O 1 RES   0.0000
1267 O  22.6320  32.3220   2.4310 O 1 RES   0.0000
1268 Si  22.6320  32.3220   3.8900 Si 1 RES   0.0000
1269 O  22.6320  30.9470   4.3770 O 1 RES   0.0000
1270 Si  22.6320  29.5720   4.8630 Si 1 RES   0.0000
1271 O  23.8230  28.8840   4.3770 O 1 RES   0.0000
1272 O  21.4410  28.8840   4.3770 O 1 RES   0.0000
1273 Si  22.6320  29.5720   7.7810 Si 1 RES   0.0000
1274 O  23.8230  28.8840   8.2670 O 1 RES   0.0000
1275 O  21.4410  28.8840   8.2670 O 1 RES   0.0000
1276 O  22.6320  30.9470   8.2670 O 1 RES   0.0000
1277 Si  22.6320  32.3220   8.7530 Si 1 RES   0.0000
1278 O  22.6320  32.3220  10.2120 O 1 RES   0.0000
1279 O  27.3960  29.5720   6.3220 O 1 RES   0.0000
1280 Si  27.3960  29.5720   0.0000 Si 1 RES   0.0000
1281 O  27.3960  30.9470   0.4860 O 1 RES   0.0000
1282 Si  27.3960  32.3220   0.9730 Si 1 RES   0.0000
1283 O  28.5870  28.8840   0.4860 O 1 RES   0.0000
1284 O  26.2050  28.8840   0.4860 O 1 RES   0.0000
1285 O  27.3960  32.3220   2.4310 O 1 RES   0.0000
1286 Si  27.3960  32.3220   3.8900 Si 1 RES   0.0000
1287 O  27.3960  30.9470   4.3770 O 1 RES   0.0000
1288 Si  27.3960  29.5720   4.8630 Si 1 RES   0.0000
1289 O  28.5870  28.8840   4.3770 O 1 RES   0.0000
1290 O  26.2050  28.8840   4.3770 O 1 RES   0.0000
1291 Si  27.3960  29.5720   7.7810 Si 1 RES   0.0000
1292 O  28.5870  28.8840   8.2670 O 1 RES   0.0000
1293 O  26.2050  28.8840   8.2670 O 1 RES   0.0000
1294 O  27.3960  30.9470   8.2670 O 1 RES   0.0000
1295 Si  27.3960  32.3220   8.7530 Si 1 RES   0.0000
1296 O  27.3960  32.3220  10.2120 O 1 RES   0.0000
1297 O  29.7790  25.4450   6.3220 O 1 RES   0.0000
1298 Si  29.7790  25.4450   0.0000 Si 1 RES   0.0000
1299 O  29.7790  26.8210   0.4860 O 1 RES   0.0000
1300 Si  29.7790  28.1960   0.9730 Si 1 RES   0.0000
1301 O  30.9700  24.7580   0.4860 O 1 RES   0.0000
1302 O  28.5870  24.7580   0.4860 O 1 RES   0.0000
1303 O  29.7790  28.1960   2.4310 O 1 RES   0.0000
1304 Si  29.7790  28.1960   3.8900 Si 1 RES   0.0000
1305 O  29.7790  26.8210   4.3770 O 1 RES   0.0000
1306 Si  29.7790  25.4450   4.8630 Si 1 RES   0.0000
1307 O  30.9700  24.7580   4.3770 O 1 RES   0.0000
1308 O  28.5870  24.7580   4.3770 O 1 RES   0.0000
1309 Si  29.7790  25.4450   7.7810 Si 1 RES   0.0000
1310 O  30.9700  24.7580   8.2670 O 1 RES   0.0000
1311 O  28.5870  24.7580   8.2670 O 1 RES   0.0000
1312 O  29.7790  26.8210   8.2670 O 1 RES   0.0000
1313 Si  29.7790  28.1960   8.7530 Si 1 RES   0.0000
1314 O  29.7790  28.1960  10.2120 O 1 RES   0.0000
1315 O  34.5430  25.4450   6.3220 O 1 RES   0.0000
1316 Si  34.5430  25.4450   0.0000 Si 1 RES   0.0000
1317 O  34.5430  26.8210   0.4860 O 1 RES   0.0000
1318 Si  34.5430  28.1960   0.9730 Si 1 RES   0.0000
1319 O  35.7340  24.7580   0.4860 O 1 RES   0.0000
1320 O  33.3520  24.7580   0.4860 O 1 RES   0.0000
1321 O  34.5430  28.1960   2.4310 O 1 RES   0.0000
1322 Si  34.5430  28.1960   3.8900 Si 1 RES   0.0000
1323 O  34.5430  26.8210   4.3770 O 1 RES   0.0000
1324 Si  34.5430  25.4450   4.8630 Si 1 RES   0.0000
1325 O  35.7340  24.7580   4.3770 O 1 RES   0.0000
1326 O  33.3520  24.7580   4.3770 O 1 RES   0.0000
1327 Si  34.5430  25.4450   7.7810 Si 1 RES   0.0000
1328 O  35.7340  24.7580   8.2670 O 1 RES   0.0000
1329 O  33.3520  24.7580   8.2670 O 1 RES   0.0000
1330 O  34.5430  26.8210   8.2670 O 1 RES   0.0000
1331 Si  34.5430  28.1960   8.7530 Si 1 RES   0.0000
1332 O  34.5430  28.1960  10.2120 O 1 RES   0.0000
1333 O  32.1610  29.5720   6.3220 O 1 RES   0.0000
1334 Si  32.1610  29.5720   0.0000 Si 1 RES   0.0000
1335 O  32.1610  30.9470   0.4860 O 1 RES   0.0000
1336 Si  32.1610  32.3220   0.9730 Si 1 RES   0.0000
1337 O  33.3520  28.8840   0.4860 O 1 RES   0.0000
1338 O  30.9700  28.8840   0.4860 O 1 RES   0.0000
1339 O  32.1610  32.3220   2.4310 O 1 RES   0.0000
1340 Si  32.1610  32.3220   3.8900 Si 1 RES   0.0000
1341 O  32.1610  30.9470   4.3770 O 1 RES   0.0000
1342 Si  32.1610  29.5720   4.8630 Si 1 RES   0.0000
1343 O  33.3520  28.8840   4.3770 O 1 RES   0.0000
1344 O  30.9700  28.8840   4.3770 O 1 RES   0.0000
1345 Si  32.1610  29.5720   7.7810 Si 1 RES   0.0000
1346 O  33.3520  28.8840   8.2670 O 1 RES   0.0000
1347 O  30.9700  28.8840   8.2670 O 1 RES   0.0000
1348 O  32.1610  30.9470   8.2670 O 1 RES   0.0000
1349 Si  32.1610  32.3220   8.7530 Si 1 RES   0.0000
1350 O  32.1610  32.3220  10.2120 O 1 RES   0.0000
1351 O  36.9250  29.5720   6.3220 O 1 RES   0.0000
1352 Si  36.9250  29.5720   0.0000 Si 1 RES   0.0000
1353 O  36.9250  30.9470   0.4860 O 1 RES   0.0000
1354 Si  36.9250  32.3220   0.9730 Si 1 RES   0.0000
1355 O  38.1170  28.8840   0.4860 O 1 RES   0.0000
1356 O  35.7340  28.8840   0.4860 O 1 RES   0.0000
1357 O  36.9250  32.3220   2.4310 O 1 RES   0.0000
1358 Si  36.9250  32.3220   3.8900 Si 1 RES   0.0000
1359 O  36.9250  30.9470   4.3770 O 1 RES   0.0000
1360 Si  36.9250  29.5720   4.8630 Si 1 RES   0.0000
1361 O  38.1170  28.8840   4.3770 O 1 RES   0.0000
1362 O  35.7340  28.8840   4.3770 O 1 RES   0.0000
1363 Si  36.9250  29.5720   7.7810 Si 1 RES   0.0000
1364 O  38.1170  28.8840   8.2670 O 1 RES   0.0000
1365 O  35.7340  28.8840   8.2670 O 1 RES   0.0000
1366 O  36.9250  30.9470   8.2670 O 1 RES   0.0000
1367 Si  36.9250  32.3220   8.7530 Si 1 RES   0.0000
1368 O  36.9250  32.3220  10.2120 O 1 RES   0.0000
1369 O  39.3080  25.4450   6.3220 O 1 RES   0.0000
1370 Si  39.3080  25.4450   0.0000 Si 1 RES   0.0000
1371 O  39.3080  26.8210   0.4860 O 1 RES   0.0000
1372 Si  39.3080  28.1960   0.9730 Si 1 RES   0.0000
1373 O  40.4990  24.7580   0.4860 O 1 RES   0.0000
1374 O  38.1170  24.7580   0.4860 O 1 RES   0.0000
1375 O  39.3080  28.1960   2.4310 O 1 RES   0.0000
1376 Si  39.3080  28.1960   3.8900 Si 1 RES   0.0000
1377 O  39.3080  26.8210   4.3770 O 1 RES   0.0000
1378 Si  39.3080  25.4450   4.8630 Si 1 RES   0.0000
1379 O  40.4990  24.7580   4.3770 O 1 RES   0.0000
1380 O  38.1170  24.7580   4.3770 O 1 RES   0.0000
1381 Si  39.3080  25.4450   7.7810 Si 1 RES   0.0000
1382 O  40.4990  24.7580   8.2670 O 1 RES   0.0000
1383 O  38.1170  24.7580   8.2670 O 1 RES   0.0000
1384 O  39.3080  26.8210   8.2670 O 1 RES   0.0000
1385 Si  39.3080  28.1960   8.7530 Si 1 RES   0.0000
1386 O  39.3080  28.1960  10.2120 O 1 RES   0.0000
1387 O  44.0720  25.4450   6.3220 O 1 RES   0.0000
1388 Si  44.0720  25.4450   0.0000 Si 1 RES   0.0000
1389 O  44.0720  26.8210   0.4860 O 1 RES   0.0000
1390 Si  44.0720  28.1960   0.9730 Si 1 RES   0.0000
1391 O  45.2640  24.7580   0.4860 O 1 RES   0.0000
1392 O  42.8810  24.7580   0.4860 O 1 RES   0.0000
1393 O  44.0720  28.1960   2.4310 O 1 RES   0.0000
1394 Si  44.0720  28.1960   3.8900 Si 1 RES   0.0000
1395 O  44.0720  26.8210   4.3770 O 1 RES   0.0000
1396 Si  44.0720  25.4450   4.8630 Si 1 RES   0.0000
1397 O  45.2640  24.7580   4.3770 O 1 RES   0.0000
1398 O  42.8810  24.7580   4.3770 O 1 RES   0.0000
1399 Si  44.0720  25.4450   7.7810 Si 1 RES   0.0000
1400 O  45.2640  24.7580   8.2670 O 1 RES   0.0000
1401 O  42.8810  24.7580   8.2670 O 1 RES   0.0000
1402 O  44.0720  26.8210   8.2670 O 1 RES   0.0000
1403 Si  44.0720  28.1960   8.7530 Si 1 RES   0.0000
1404 O  44.0720  28.1960  10.2120 O 1 RES   0.0000
1405 O  41.6900  29.5720   6.3220 O 1 RES   0.0000
1406 Si  41.6900  29.5720   0.0000 Si 1 RES   0.0000
1407 O  41.6900  30.9470   0.4860 O 1 RES   0.0000
1408 Si  41.6900  32.3220   0.9730 Si 1 RES   0.0000
1409 O  42.8810  28.8840   0.4860 O 1 RES   0.0000
1410 O  40.4990  28.8840   0.4860 O 1 RES   0.0000
1411 O  41.6900  32.3220   2.4310 O 1 RES   0.0000
1412 Si  41.6900  32.3220   3.8900 Si 1 RES   0.0000
1413 O  41.6900  30.9470   4.3770 O 1 RES   0.0000
1414 Si  41.6900  29.5720   4.8630 Si 1 RES   0.0000
1415 O  42.8810  28.8840   4.3770 O 1 RES   0.0000
1416 O  40.4990  28.8840   4.3770 O 1 RES   0.0000
1417 Si  41.6900  29.5720   7.7810 Si 1 RES   0.0000
1418 O  42.8810  28.8840   8.2670 O 1 RES   0.0000
1419 O  40.4990  28.8840   8.2670 O 1 RES   0.0000
1420 O  41.6900  30.9470   8.2670 O 1 RES   0.0000
1421 Si  41.6900  32.3220   8.7530 Si 1 RES   0.0000
1422 O  41.6900  32.3220  10.2120 O 1 RES   0.0000
1423 O  46.4550  29.5720   6.3220 O 1 RES   0.0000
1424 Si  46.4550  29.5720   0.0000 Si 1 RES   0.0000
1425 O  46.4550  30.9470   0.4860 O 1 RES   0.0000
1426 Si  46.4550  32.3220   0.9730 Si 1 RES   0.0000
1427 O  -0.0430  28.8840   0.4860 O 1 RES   0.0000
1428 O  45.2640  28.8840   0.4860 O 1 RES   0.0000
1429 O  46.4550  32.3220   2.4310 O 1 RES   0.0000
1430 Si  46.4550  32.3220   3.8900 Si 1 RES   0.0000
1431 O  46.4550  30.9470   4.3770 O 1 RES   0.0000
1432 Si  46.4550  29.5720   4.8630 Si 1 RES   0.0000
1433 O  -0.0430  28.8840   4.3770 O 1 RES   0.0000
1434 O  45.2640  28.8840   4.3770 O 1 RES   0.0000
1435 Si  46.4550  29.5720   7.7810 Si 1 RES   0.0000
1436 O  -0.0430  28.8840   8.2670 O 1 RES   0.0000
1437 O  45.2640  28.8840   8.2670 O 1 RES   0.0000
1438 O  46.4550  30.9470   8.2670 O 1 RES   0.0000
1439 Si  46.4550  32.3220   8.7530 Si 1 RES   0.0000
1440 O  46.4550  32.3220  10.2120 O 1 RES   0.0000
1441 O   1.1910  33.6980   6.3220 O 1 RES   0.0000
1442 Si   1.1910  33.6980   0.0000 Si 1 RES   0.0000
1443 O   1.1910  35.0730   0.4860 O 1 RES   0.0000
1444 Si   1.1910  36.4490   0.9730 Si 1 RES   0.0000
1445 O   2.3820  33.0100   0.4860 O 1 RES   0.0000
1446 O   0.0000  33.0100   0.4860 O 1 RES   0.0000
1447 O   1.1910  36.4490   2.4310 O 1 RES   0.0000
1448 Si   1.1910  36.4490   3.8900 Si 1 RES   0.0000
1449 O   1.1910  35.0730   4.3770 O 1 RES   0.0000
1450 Si   1.1910  33.6980   4.8630 Si 1 RES   0.0000
1451 O   2.3820  33.0100   4.3770 O 1 RES   0.0000
1452 O   0.0000  33.0100   4.3770 O 1 RES   0.0000
1453 Si   1.1910  33.6980   7.7810 Si 1 RES   0.0000
1454 O   2.3820  33.0100   8.2670 O 1 RES   0.0000
1455 O   0.0000  33.0100   8.2670 O 1 RES   0.0000
1456 O   1.1910  35.0730   8.2670 O 1 RES   0.0000
1457 Si   1.1910  36.4490   8.7530 Si 1 RES   0.0000
1458 O   1.1910  36.4490  10.2120 O 1 RES   0.0000
1459 O   5.9560  33.6980   6.3220 O 1 RES   0.0000
1460 Si   5.9560  33.6980   0.0000 Si 1 RES   0.0000
1461 O   5.9560  35.0730   0.4860 O 1 RES   0.0000
1462 Si   5.9560  36.4490   0.9730 Si 1 RES   0.0000
1463 O   7.1470  33.0100   0.4860 O 1 RES   0.0000
1464 O   4.7650  33.0100   0.4860 O 1 RES   0.0000
1465 O   5.9560  36.4490   2.4310 O 1 RES   0.0000
1466 Si   5.9560  36.4490   3.8900 Si 1 RES   0.0000
1467 O   5.9560  35.0730   4.3770 O 1 RES   0.0000
1468 Si   5.9560  33.6980   4.8630 Si 1 RES   0.0000
1469 O   7.1470  33.0100   4.3770 O 1 RES   0.0000
1470 O   4.7650  33.0100   4.3770 O 1 RES   0.0000
1471 Si   5.9560  33.6980   7.7810 Si 1 RES   0.0000
1472 O   7.1470  33.0100   8.2670 O 1 RES   0.0000
1473 O   4.7650  33.0100   8.2670 O 1 RES   0.0000
1474 O   5.9560  35.0730   8.2670 O 1 RES   0.0000
1475 Si   5.9560  36.4490   8.7530 Si 1 RES   0.0000
1476 O   5.9560  36.4490  10.2120 O 1 RES   0.0000
1477 O   3.5730  37.8240   6.3220 O 1 RES   0.0000
1478 Si   3.5730  37.8240   0.0000 Si 1 RES   0.0000
1479 O   3.5730  39.1990   0.4860 O 1 RES   0.0000
1480 Si   3.5730  -0.7250   0.9730 Si 1 RES   0.0000
1481 O   4.7650  37.1360   0.4860 O 1 RES   0.0000
1482 O   2.3820  37.1360   0.4860 O 1 RES   0.0000
1483 O   3.5730  -0.7250   2.4310 O 1 RES   0.0000
1484 Si   3.5730  -0.7250   3.8900 Si 1 RES   0.0000
1485 O   3.5730  39.1990   4.3770 O 1 RES   0.0000
1486 Si   3.5730  37.8240   4.8630 Si 1 RES   0.0000
1487 O   4.7650  37.1360   4.3770 O 1 RES   0.0000
1488 O   2.3820  37.1360   4.3770 O 1 RES   0.0000
1489 Si   3.5730  37.8240   7.7810 Si 1 RES   0.0000
1490 O   4.7650  37.1360   8.2670 O 1 RES   0.0000
1491 O   2.3820  37.1360   8.2670 O 1 RES   0.0000
1492 O   3.5730  39.1990   8.2670 O 1 RES   0.0000
1493 Si   3.5730  -0.7250   8.7530 Si 1 RES   0.0000
1494 O   3.5730  -0.7250  10.2120 O 1 RES   0.0000
1495 O   8.3380  37.8240   6.3220 O 1 RES   0.0000
1496 Si   8.3380  37.8240   0.0000 Si 1 RES   0.0000
1497 O   8.3380  39.1990   0.4860 O 1 RES   0.0000
1498 Si   8.3380  -0.7250   0.9730 Si 1 RES   0.0000
1499 O   9.5290  37.1360   0.4860 O 1 RES   0.0000
1500 O   7.1470  37.1360   0.4860 O 1 RES   0.0000
1501 O   8.3380  -0.7250   2.4310 O 1 RES   0.0000
1502 Si   8.3380  -0.7250   3.8900 Si 1 RES   0.0000
1503 O   8.3380  39.1990   4.3770 O 1 RES   0.0000
1504 Si   8.3380  37.8240   4.8630 Si 1 RES   0.0000
1505 O   9.5290  37.1360   4.3770 O 1 RES   0.0000
1506 O   7.1470  37.1360   4.3770 O 1 RES   0.0000
1507 Si   8.3380  37.8240   7.7810 Si 1 RES   0.0000
1508 O   9.5290  37.1360   8.2670 O 1 RES   0.0000
1509 O   7.1470  37.1360   8.2670 O 1 RES   0.0000
1510 O   8.3380  39.1990   8.2670 O 1 RES   0.0000
1511 Si   8.3380  -0.7250   8.7530 Si 1 RES   0.0000
1512 O   8.3380  -0.7250  10.2120 O 1 RES   0.0000
1513 O  10.7200  33.6980   6.3220 O 1 RES   0.0000
1514 Si  10.7200  33.6980   0.0000 Si 1 RES   0.0000
1515 O  10.7200  35.0730   0.4860 O 1 RES   0.0000
1516 Si  10.7200  36.4490   0.9730 Si 1 RES   0.0000
1517 O  11.9120  33.0100   0.4860 O 1 RES   0.0000
1518 O   9.5290  33.0100   0.4860 O 1 RES   0.0000
1519 O  10.7200  36.4490   2.4310 O 1 RES   0.0000
1520 Si  10.7200  36.4490   3.8900 Si 1 RES   0.0000
1521 O  10.7200  35.0730   4.3770 O 1 RES   0.0000
1522 Si  10.7200  33.6980   4.8630 Si 1 RES   0.0000
1523 O  11.9120  33.0100   4.3770 O 1 RES   0.0000
1524 O   9.5290  33.0100   4.3770 O 1 RES   0.0000
1525 Si  10.7200  33.6980   7.7810 Si 1 RES   0.0000
1526 O  11.9120  33.0100   8.2670 O 1 RES   0.0000
1527 O   9.5290  33.0100   8.2670 O 1 RES   0.0000
1528 O  10.7200  35.0730   8.2670 O 1 RES   0.0000
1529 Si  10.7200  36.4490   8.7530 Si 1 RES   0.0000
1530 O  10.7200  36.4490  10.2120 O 1 RES   0.0000
1531 O  15.4850  33.6980   6.3220 O 1 RES   0.0000
1532 Si  15.4850  33.6980   0.0000 Si 1 RES   0.0000
1533 O  15.4850  35.0730   0.4860 O 1 RES   0.0000
1534 Si  15.4850  36.4490   0.9730 Si 1 RES   0.0000
1535 O  16.6760  33.0100   0.4860 O 1 RES   0.0000
1536 O  14.2940  33.0100   0.4860 O 1 RES   0.0000
1537 O  15.4850  36.4490   2.4310 O 1 RES   0.0000
1538 Si  15.4850  36.4490   3.8900 Si 1 RES   0.0000
1539 O  15.4850  35.0730   4.3770 O 1 RES   0.0000
1540 Si  15.4850  33.6980   4.8630 Si 1 RES   0.0000
1541 O  16.6760  33.0100   4.3770 O 1 RES   0.0000
1542 O  14.2940  33.0100   4.3770 O 1 RES   0.0000
1543 Si  15.4850  33.6980   7.7810 Si 1 RES   0.0000
1544 O  16.6760  33.0100   8.2670 O 1 RES   0.0000
1545 O  14.2940  33.0100   8.2670 O 1 RES   0.0000
1546 O  15.4850  35.0730   8.2670 O 1 RES   0.0000
1547 Si  15.4850  36.4490   8.7530 Si 1 RES   0.0000
1548 O  15.4850  36.4490  10.2120 O 1 RES   0.0000
1549 O  13.1030  37.8240   6.3220 O 1 RES   0.0000
1550 Si  13.1030  37.8240   0.0000 Si 1 RES   0.0000
1551 O  13.1030  39.1990   0.4860 O 1 RES   0.0000
1552 Si  13.1030  -0.7250   0.9730 Si 1 RES   0.0000
1553 O  14.2940  37.1360   0.4860 O 1 RES   0.0000
1554 O  11.9120  37.1360   0.4860 O 1 RES   0.0000
1555 O  13.1030  -0.7250   2.4310 O 1 RES   0.0000
1556 Si  13.1030  -0.7250   3.8900 Si 1 RES   0.0000
1557 O  13.1030  39.1990   4.3770 O 1 RES   0.0000
1558 Si  13.1030  37.8240   4.8630 Si 1 RES   0.0000
1559 O  14.2940  37.1360   4.3770 O 1 RES   0.0000
1560 O  11.9120  37.1360   4.3770 O 1 RES   0.0000
1561 Si  13.1030  37.8240   7.7810 Si 1 RES   0.0000
1562 O  14.2940  37.1360   8.2670 O 1 RES   0.0000
1563 O  11.9120  37.1360   8.2670 O 1 RES   0.0000
1564 O  13.1030  39.1990   8.2670 O 1 RES   0.0000
1565 Si  13.1030  -0.7250   8.7530 Si 1 RES   0.0000
1566 O  13.1030  -0.7250  10.2120 O 1 RES   0.0000
1567 O  17.8670  37.8240   6.3220 O 1 RES   0.0000
1568 Si  17.8670  37.8240   0.0000 Si 1 RES   0.0000
1569 O  17.8670  39.1990   0.4860 O 1 RES   0.0000
1570 Si  17.8670  -0.7250   0.9730 Si 1 RES   0.0000
1571 O  19.0580  37.1360   0.4860 O 1 RES   0.0000
1572 O  16.6760  37.1360   0.4860 O 1 RES   0.0000
1573 O  17.8670  -0.7250   2.4310 O 1 RES   0.0000
1574 Si  17.8670  -0.7250   3.8900 Si 1 RES   0.0000
1575 O  17.8670  39.1990   4.3770 O 1 RES   0.0000
1576 Si  17.8670  37.8240   4.8630 Si 1 RES   0.0000
1577 O  19.0580  37.1360   4.3770 O 1 RES   0.0000
1578 O  16.6760  37.1360   4.3770 O 1 RES   0.0000
1579 Si  17.8670  37.8240   7.7810 Si 1 RES   0.0000
1580 O  19.0580  37.1360   8.2670 O 1 RES   0.0000
1581 O  16.6760  37.1360   8.2670 O 1 RES   0.0000
1582 O  17.8670  39.1990   8.2670 O 1 RES   0.0000
1583 Si  17.8670  -0.7250   8.7530 Si 1 RES   0.0000
1584 O  17.8670  -0.7250  10.2120 O 1 RES   0.0000
1585 O  20.2500  33.6980   6.3220 O 1 RES   0.0000
1586 Si  20.2500  33.6980   0.0000 Si 1 RES   0.0000
1587 O  20.2500  35.0730   0.4860 O 1 RES   0.0000
1588 Si  20.2500  36.4490   0.9730 Si 1 RES   0.0000
1589 O  21.4410  33.0100   0.4860 O 1 RES   0.0000
1590 O  19.0580  33.0100   0.4860 O 1 RES   0.0000
1591 O  20.2500  36.4490   2.4310 O 1 RES   0.0000
1592 Si  20.2500  36.4490   3.8900 Si 1 RES   0.0000
1593 O  20.2500  35.0730   4.3770 O 1 RES   0.0000
1594 Si  20.2500  33.6980   4.8630 Si 1 RES   0.0000
1595 O  21.4410  33.0100   4.3770 O 1 RES   0.0000
1596 O  19.0580  33.0100   4.3770 O 1 RES   0.0000
1597 Si  20.2500  33.6980   7.7810 Si 1 RES   0.0000
1598 O  21.4410  33.0100   8.2670 O 1 RES   0.0000
1599 O  19.0580  33.0100   8.2670 O 1 RES   0.0000
1600 O  20.2500  35.0730   8.2670 O 1 RES   0.0000
1601 Si  20.2500  36.4490   8.7530 Si 1 RES   0.0000
1602 O  20.2500  36.4490  10.2120 O 1 RES   0.0000
1603 O  25.0140  33.6980   6.3220 O 1 RES   0.0000
1604 Si  25.0140  33.6980   0.0000 Si 1 RES   0.0000
1605 O  25.0140  35.0730   0.4860 O 1 RES   0.0000
1606 Si  25.0140  36.4490   0.9730 Si 1 RES   0.0000
1607 O  26.2050  33.0100   0.4860 O 1 RES   0.0000
1608 O  23.8230  33.0100   0.4860 O 1 RES   0.0000
1609 O  25.0140  36.4490   2.4310 O 1 RES   0.0000
1610 Si  25.0140  36.4490   3.8900 Si 1 RES   0.0000
1611 O  25.0140  35.0730   4.3770 O 1 RES   0.0000
1612 Si  25.0140  33.6980   4.8630 Si 1 RES   0.0000
1613 O  26.2050  33.0100   4.3770 O 1 RES   0.0000
1614 O  23.8230  33.0100   4.3770 O 1 RES   0.0000
1615 Si  25.0140  33.6980   7.7810 Si 1 RES   0.0000
1616 O  26.2050  33.0100   8.2670 O 1 RES   0.0000
1617 O  23.8230  33.0100   8.2670 O 1 RES   0.0000
1618 O  25.0140  35.0730   8.2670 O 1 RES   0.0000
1619 Si  25.0140  36.4490   8.7530 Si 1 RES   0.0000
1620 O  25.0140  36.4490  10.2120 O 1 RES   0.0000
1621 O  22.6320  37.8240   6.3220 O 1 RES   0.0000
1622 Si  22.6320  37.8240   0.0000 Si 1 RES   0.0000
1623 O  22.6320  39.1990   0.4860 O 1 RES   0.0000
1624 Si  22.6320  -0.7250   0.9730 Si 1 RES   0.0000
1625 O  23.8230  37.1360   0.4860 O 1 RES   0.0000
1626 O  21.4410  37.1360   0.4860 O 1 RES   0.0000
1627 O  22.6320  -0.7250   2.4310 O 1 RES   0.0000
1628 Si  22.6320  -0.7250   3.8900 Si 1 RES   0.0000
1629 O  22.6320  39.1990   4.3770 O 1 RES   0.0000
1630 Si  22.6320  37.8240   4.8630 Si 1 RES   0.0000
1631 O  23.8230  37.1360   4.3770 O 1 RES   0.0000
1632 O  21.4410  37.1360   4.3770 O 1 RES   0.0000
1633 Si  22.6320  37.8240   7.7810 Si 1 RES   0.0000
1634 O  23.8230  37.1360   8.2670 O 1 RES   0.0000
1635 O  21.4410  37.1360   8.2670 O 1 RES   0.0000
1636 O  22.6320  39.1990   8.2670 O 1 RES   0.0000
1637 Si  22.6320  -0.7250   8.7530 Si 1 RES   0.0000
1638 O  22.6320  -0.7250  10.2120 O 1 RES   0.0000
1639 O  27.3960  37.8240   6.3220 O 1 RES   0.0000
1640 Si  27.3960  37.8240   0.0000 Si 1 RES   0.0000
1641 O  27.3960  39.1990   0.4860 O 1 RES   0.0000
1642 Si  27.3960  -0.7250   0.9730 Si 1 RES   0.0000
1643 O  28.5870  37.1360   0.4860 O 1 RES   0.0000
1644 O  26.2050  37.1360   0.4860 O 1 RES   0.0000
1645 O  27.3960  -0.7250   2.4310 O 1 RES   0.0000
1646 Si  27.3960  -0.7250   3.8900 Si 1 RES   0.0000
1647 O  27.3960  39.1990   4.3770 O 1 RES   0.0000
1648 Si  27.3960  37.8240   4.8630 Si 1 RES   0.0000
1649 O  28.5870  37.1360   4.3770 O 1 RES   0.0000
1650 O  26.2050  37.1360   4.3770 O 1 RES   0.0000
1651 Si  27.3960  37.8240   7.7810 Si 1 RES   0.0000
1652 O  28.5870  37.1360   8.2670 O 1 RES   0.0000
1653 O  26.2050  37.1360   8.2670 O 1 RES   0.0000
1654 O  27.3960  39.1990   8.2670 O 1 RES   0.0000
1655 Si  27.3960  -0.7250   8.7530 Si 1 RES   0.0000
1656 O  27.3960  -0.7250  10.2120 O 1 RES   0.0000
1657 O  29.7790  33.6980   6.3220 O 1 RES   0.0000
1658 Si  29.7790  33.6980   0.0000 Si 1 RES   0.0000
1659 O  29.7790  35.0730   0.4860 O 1 RES   0.0000
1660 Si  29.7790  36.4490   0.9730 Si 1 RES   0.0000
1661 O  30.9700  33.0100   0.4860 O 1 RES   0.0000
1662 O  28.5870  33.0100   0.4860 O 1 RES   0.0000
1663 O  29.7790  36.4490   2.4310 O 1 RES   0.0000
1664 Si  29.7790  36.4490   3.8900 Si 1 RES   0.0000
1665 O  29.7790  35.0730   4.3770 O 1 RES   0.0000
1666 Si  29.7790  33.6980   4.8630 Si 1 RES   0.0000
1667 O  30.9700  33.0100   4.3770 O 1 RES   0.0000
1668 O  28.5870  33.0100   4.3770 O 1 RES   0.0000
1669 Si  29.7790  33.6980   7.7810 Si 1 RES   0.0000
1670 O  30.9700  33.0100   8.2670 O 1 RES   0.0000
1671 O  28.5870  33.0100   8.2670 O 1 RES   0.0000
1672 O  29.7790  35.0730   8.2670 O 1 RES   0.0000
1673 Si  29.7790  36.4490   8.7530 Si 1 RES   0.0000
1674 O  29.7790  36.4490  10.2120 O 1 RES   0.0000
1675 O  34.5430  33.6980   6.3220 O 1 RES   0.0000
1676 Si  34.5430  33.6980   0.0000 Si 1 RES   0.0000
1677 O  34.5430  35.0730   0.4860 O 1 RES   0.0000
1678 Si  34.5430  36.4490   0.9730 Si 1 RES   0.0000
1679 O  35.7340  33.0100   0.4860 O 1 RES   0.0000
1680 O  33.3520  33.0100   0.4860 O 1 RES   0.0000
1681 O  34.5430  36.4490   2.4310 O 1 RES   0.0000
1682 Si  34.5430  36.4490   3.8900 Si 1 RES   0.0000
1683 O  34.5430  35.0730   4.3770 O 1 RES   0.0000
1684 Si  34.5430  33.6980   4.8630 Si 1 RES   0.0000
1685 O  35.7340  33.0100   4.3770 O 1 RES   0.0000
1686 O  33.3520  33.0100   4.3770 O 1 RES   0.0000
1687 Si  34.5430  33.6980   7.7810 Si 1 RES   0.0000
1688 O  35.7340  33.0100   8.2670 O 1 RES   0.0000
1689 O  33.3520  33.0100   8.2670 O 1 RES   0.0000
1690 O  34.5430  35.0730   8.2670 O 1 RES   0.0000
1691 Si  34.5430  36.4490   8.7530 Si 1 RES   0.0000
1692 O  34.5430  36.4490  10.2120 O 1 RES   0.0000
1693 O  32.1610  37.8240   6.3220 O 1 RES   0.0000
1694 Si  32.1610  37.8240   0.0000 Si 1 RES   0.0000
1695 O  32.1610  39.1990   0.4860 O 1 RES   0.0000
1696 Si  32.1610  -0.7250   0.9730 Si 1 RES   0.0000
1697 O  33.3520  37.1360   0.4860 O 1 RES   0.0000
1698 O  30.9700  37.1360   0.4860 O 1 RES   0.0000
1699 O  32.1610  -0.7250   2.4310 O 1 RES   0.0000
1700 Si  32.1610  -0.7250   3.8900 Si 1 RES   0.0000
1701 O  32.1610  39.1990   4.3770 O 1 RES   0.0000
1702 Si  32.1610  37.8240   4.8630 Si 1 RES   0.0000
1703 O  33.3520  37.1360   4.3770 O 1 RES   0.0000
1704 O  30.9700  37.1360   4.3770 O 1 RES   0.0000
1705 Si  32.1610  37.8240   7.7810 Si 1 RES   0.0000
1706 O  33.3520  37.1360   8.2670 O 1 RES   0.0000
1707 O  30.9700  37.1360   8.2670 O 1 RES   0.0000
1708 O  32.1610  39.1990   8.2670 O 1 RES   0.0000
1709 Si  32.1610  -0.7250   8.7530 Si 1 RES   0.0000
1710 O  32.1610  -0.7250  10.2120 O 1 RES   0.0000
1711 O  36.9250  37.8240   6.3220 O 1 RES   0.0000
1712 Si  36.9250  37.8240   0.0000 Si 1 RES   0.0000
1713 O  36.9250  39.1990   0.4860 O 1 RES   0.0000
1714 Si  36.9250  -0.7250   0.9730 Si 1 RES   0.0000
1715 O  38.1170  37.1360   0.4860 O 1 RES   0.0000
1716 O  35.7340  37.1360   0.4860 O 1 RES   0.0000
1717 O  36.9250  -0.7250   2.4310 O 1 RES   0.0000
1718 Si  36.9250  -0.7250   3.8900 Si 1 RES   0.0000
1719 O  36.9250  39.1990   4.3770 O 1 RES   0.0000
1720 Si  36.9250  37.8240   4.8630 Si 1 RES   0.0000
1721 O  38.1170  37.1360   4.3770 O 1 RES   0.0000
1722 O  35.7340  37.1360   4.3770 O 1 RES   0.0000
1723 Si  36.9250  37.8240   7.7810 Si 1 RES   0.0000
1724 O  38.1170  37.1360   8.2670 O 1 RES   0.0000
1725 O  35.7340  37.1360   8.2670 O 1 RES   0.0000
1726 O  36.9250  39.1990   8.2670 O 1 RES   0.0000
1727 Si  36.9250  -0.7250   8.7530 Si 1 RES   0.0000
1728 O  36.9250  -0.7250  10.2120 O 1 RES   0.0000
1729 O  39.3080  33.6980   6.3220 O 1 RES   0.0000
1730 Si  39.3080  33.6980   0.0000 Si 1 RES   0.0000
1731 O  39.3080  35.0730   0.4860 O 1 RES   0.0000
1732 Si  39.3080  36.4490   0.9730 Si 1 RES   0.0000
1733 O  40.4990  33.0100   0.4860 O 1 RES   0.0000
1734 O  38.1170  33.0100   0.4860 O 1 RES   0.0000
1735 O  39.3080  36.4490   2.4310 O 1 RES   0.0000
1736 Si  39.3080  36.4490   3.8900 Si 1 RES   0.0000
1737 O  39.3080  35.0730   4.3770 O 1 RES   0.0000
1738 Si  39.3080  33.6980   4.8630 Si 1 RES   0.0000
1739 O  40.4990  33.0100   4.3770 O 1 RES   0.0000
1740 O  38.1170  33.0100   4.3770 O 1 RES   0.0000
1741 Si  39.3080  33.6980   7.7810 Si 1 RES   0.0000
1742 O  40.4990  33.0100   8.2670 O 1 RES   0.0000
1743 O  38.1170  33.0100   8.2670 O 1 RES   0.0000
1744 O  39.3080  35.0730   8.2670 O 1 RES   0.0000
1745 Si  39.3080  36.4490   8.7530 Si 1 RES   0.0000
1746 O  39.3080  36.4490  10.2120 O 1 RES   0.0000
1747 O  44.0720  33.6980   6.3220 O 1 RES   0.0000
1748 Si  44.0720  33.6980   0.0000 Si 1 RES   0.0000
1749 O  44.0720  35.0730   0.4860 O 1 RES   0.0000
1750 Si  44.0720  36.4490   0.9730 Si 1 RES   0.0000
1751 O  45.2640  33.0100   0.4860 O 1 RES   0.0000
1752 O  42.8810  33.0100   0.4860 O 1 RES   0.0000
1753 O  44.0720  36.4490   2.4310 O 1 RES   0.0000
1754 Si  44.0720  36.4490   3.8900 Si 1 RES   0.0000
1755 O  44.0720  35.0730   4.3770 O 1 RES   0.0000
1756 Si  44.0720  33.6980   4.8630 Si 1 RES   0.0000
1757 O  45.2640  33.0100   4.3770 O 1 RES   0.0000
1758 O  42.8810  33.0100   4.3770 O 1 RES   0.0000
1759 Si  44.0720  33.6980   7.7810 Si 1 RES   0.0000
1760 O  45.2640  33.0100   8.2670 O 1 RES   0.0000
1761 O  42.8810  33.0100   8.2670 O 1 RES   0.0000
1762 O  44.0720  35.0730   8.2670 O 1 RES   0.0000
1763 Si  44.0720  36.4490   8.7530 Si 1 RES   0.0000
1764 O  44.0720  36.4490  10.2120 O 1 RES   0.0000
1765 O  41.6900  37.8240   6.3220 O 1 RES   0.0000
1766 Si  41.6900  37.8240   0.0000 Si 1 RES   0.0000
1767 O  41.6900  39.1990   0.4860 O 1 RES   0.0000
1768 Si  41.6900  -0.7250   0.9730 Si 1 RES   0.0000
1769 O  42.8810  37.1360   0.4860 O 1 RES   0.0000
1770 O  40.4990  37.1360   0.4860 O 1 RES   0.0000
1771 O  41.6900  -0.7250   2.4310 O 1 RES   0.0000
1772 Si  41.6900  -0.7250   3.8900 Si 1 RES   0.0000
1773 O  41.6900  39.1990   4.3770 O 1 RES   0.0000
1774 Si  41.6900  37.8240   4.8630 Si 1 RES   0.0000
1775 O  42.8810  37.1360   4.3770 O 1 RES   0.0000
1776 O  40.4990  37.1360   4.3770 O 1 RES   0.0000
1777 Si  41.6900  37.8240   7.7810 Si 1 RES   0.0000
1778 O  42.8810  37.1360   8.2670 O 1 RES   0.0000
1779 O  40.4990  37.1360   8.2670 O 1 RES   0.0000
1780 O  41.6900  39.1990   8.2670 O 1 RES   0.0000
1781 Si  41.6900  -0.7250   8.7530 Si 1 RES   0.0000
1782 O  41.6900  -0.7250  10.2120 O 1 RES   0.0000
1783 O  46.4550  37.8240   6.3220 O 1 RES   0.0000
1784 Si  46.4550  37.8240   0.0000 Si 1 RES   0.0000
1785 O  46.4550  39.1990   0.4860 O 1 RES   0.0000
1786 Si  46.4550  -0.7250   0.9730 Si 1 RES   0.0000
1787 O  -0.0430  37.1360   0.4860 O 1 RES   0.0000
1788 O  45.2640  37.1360   0.4860 O 1 RES   0.0000
1789 O  46.4550  -0.7250   2.4310 O 1 RES   0.0000
1790 Si  46.4550  -0.7250   3.8900 Si 1 RES   0.0000
1791 O  46.4550  39.1990   4.3770 O 1 RES   0.0000
1792 Si  46.4550  37.8240   4.8630 Si 1 RES   0.0000
1793 O  -0.0430  37.1360   4.3770 O 1 RES   0.0000
1794 O  45.2640  37.1360   4.3770 O 1 RES   0.0000
1795 Si  46.4550  37.8240   7.7810 Si 1 RES   0.0000
1796 O  -0.0430  37.1360   8.2670 O 1 RES   0.0000
1797 O  45.2640  37.1360   8.2670 O 1 RES   0.0000
1798 O  46.4550  39.1990   8.2670 O 1 RES   0.0000
1799 Si  46.4550  -0.7250   8.7530 Si 1 RES   0.0000
1800 O  46.4550  -0.7250  10.2120 O 1 RES   0.0000
1801 O   1.1910  41.9880   6.3220 O 1 RES   0.0000
1802 Si   1.1910  41.9880   0.0000 Si 1 RES   0.0000
1803 O   1.1910  43.3630   0.4860 O 1 RES   0.0000
1804 Si   1.1910  44.7390   0.9730 Si 1 RES   0.0000
1805 O   2.3820  41.3000   0.4860 O 1 RES   0.0000
1806 O   0.0000  41.3000   0.4860 O 1 RES   0.0000
1807 O   1.1910  44.7390   2.4310 O 1 RES   0.0000
1808 Si   1.1910  44.7390   3.8900 Si 1 RES   0.0000
1809 O   1.1910  43.3630   4.3770 O 1 RES   0.0000
1810 Si   1.1910  41.9880   4.8630 Si 1 RES   0.0000
1811 O   2.3820  41.3000   4.3770 O 1 RES   0.0000
1812 O   0.0000  41.3000   4.3770 O 1 RES   0.0000
1813 Si   1.1910  41.9880   7.7810 Si 1 RES   0.0000
1814 O   2.3820  41.3000   8.2670 O 1 RES   0.0000
1815 O   0.0000  41.3000   8.2670 O 1 RES   0.0000
1816 O   1.1910  43.3630   8.2670 O 1 RES   0.0000
1817 Si   1.1910  44.7390   8.7530 Si 1 RES   0.0000
1818 O   1.1910  44.7390  10.2120 O 1 RES   0.0000
1819 O   5.9560  41.9880   6.3220 O 1 RES   0.0000
1820 Si   5.9560  41.9880   0.0000 Si 1 RES   0.0000
1821 O   5.9560  43.3630   0.4860 O 1 RES   0.0000
1822 Si   5.9560  44.7390   0.9730 Si 1 RES   0.0000
1823 O   7.1470  41.3000   0.4860 O 1 RES   0.0000
1824 O   4.7650  41.3000   0.4860 O 1 RES   0.0000
1825 O   5.9560  44.7390   2.4310 O 1 RES   0.0000
1826 Si   5.9560  44.7390   3.8900 Si 1 RES   0.0000
1827 O   5.9560  43.3630   4.3770 O 1 RES   0.0000
1828 Si   5.9560  41.9880   4.8630 Si 1 RES   0.0000
1829 O   7.1470  41.3000   4.3770 O 1 RES   0.0000
1830 O   4.7650  41.3000   4.3770 O 1 RES   0.0000
1831 Si   5.9560  41.9880   7.7810 Si 1 RES   0.0000
1832 O   7.1470  41.3000   8.2670 O 1 RES   0.0000
1833 O   4.7650  41.3000   8.2670 O 1 RES   0.0000
1834 O   5.9560  43.3630   8.2670 O 1 RES   0.0000
1835 Si   5.9560  44.7390   8.7530 Si 1 RES   0.0000
1836 O   5.9560  44.7390  10.2120 O 1 RES   0.0000
1837 O   3.5730  46.1140   6.3220 O 1 RES   0.0000
1838 Si   3.5730  46.1140   0.0000 Si 1 RES   0.0000
1839 O   3.5730  47.4890   0.4860 O 1 RES   0.0000
1840 Si   3.5730  48.8650   0.9730 Si 1 RES   0.0000
1841 O   4.7650  45.4260   0.4860 O 1 RES   0.0000
1842 O   2.3820  45.4260   0.4860 O 1 RES   0.0000
1843 O   3.5730  48.8650   2.4310 O 1 RES   0.0000
1844 Si   3.5730  48.8650   3.8900 Si 1 RES   0.0000
1845 O   3.5730  47.4890   4.3770 O 1 RES   0.0000
1846 Si   3.5730  46.1140   4.8630 Si 1 RES   0.0000
1847 O   4.7650  45.4260   4.3770 O 1 RES   0.0000
1848 O   2.3820  45.4260   4.3770 O 1 RES   0.0000
1849 Si   3.5730  46.1140   7.7810 Si 1 RES   0.0000
1850 O   4.7650  45.4260   8.2670 O 1 RES   0.0000
1851 O   2.3820  45.4260   8.2670 O 1 RES   0.0000
1852 O   3.5730  47.4890   8.2670 O 1 RES   0.0000
1853 Si   3.5730  48.8650   8.7530 Si 1 RES   0.0000
1854 O   3.5730  48.8650  10.2120 O 1 RES   0.0000
1855 O   8.3380  46.1140   6.3220 O 1 RES   0.0000
1856 Si   8.3380  46.1140   0.0000 Si 1 RES   0.0000
1857 O   8.3380  47.4890   0.4860 O 1 RES   0.0000
1858 Si   8.3380  48.8650   0.9730 Si 1 RES   0.0000
1859 O   9.5290  45.4260   0.4860 O 1 RES   0.0000
1860 O   7.1470  45.4260   0.4860 O 1 RES   0.0000
1861 O   8.3380  48.8650   2.4310 O 1 RES   0.0000
1862 Si   8.3380  48.8650   3.8900 Si 1 RES   0.0000
1863 O   8.3380  47.4890   4.3770 O 1 RES   0.0000
1864 Si   8.3380  46.1140   4.8630 Si 1 RES   0.0000
1865 O   9.5290  45.4260   4.3770 O 1 RES   0.0000
1866 O   7.1470  45.4260   4.3770 O 1 RES   0.0000
1867 Si   8.3380  46.1140   7.7810 Si 1 RES   0.0000
1868 O   9.5290  45.4260   8.2670 O 1 RES   0.0000
1869 O   7.1470  45.4260   8.2670 O 1 RES   0.0000
1870 O   8.3380  47.4890   8.2670 O 1 RES   0.0000
1871 Si   8.3380  48.8650   8.7530 Si 1 RES   0.0000
1872 O   8.3380  48.8650  10.2120 O 1 RES   0.0000
1873 O  10.7200  41.9880   6.3220 O 1 RES   0.0000
1874 Si  10.7200  41.9880   0.0000 Si 1 RES   0.0000
1875 O  10.7200  43.3630   0.4860 O 1 RES   0.0000
1876 Si  10.7200  44.7390   0.9730 Si 1 RES   0.0000
1877 O  11.9120  41.3000   0.4860 O 1 RES   0.0000
1878 O   9.5290  41.3000   0.4860 O 1 RES   0.0000
1879 O  10.7200  44.7390   2.4310 O 1 RES   0.0000
1880 Si  10.7200  44.7390   3.8900 Si 1 RES   0.0000
1881 O  10.7200  43.3630   4.3770 O 1 RES   0.0000
1882 Si  10.7200  41.9880   4.8630 Si 1 RES   0.0000
1883 O  11.9120  41.3000   4.3770 O 1 RES   0.0000
1884 O   9.5290  41.3000   4.3770 O 1 RES   0.0000
1885 Si  10.7200  41.9880   7.7810 Si 1 RES   0.0000
1886 O  11.9120  41.3000   8.2670 O 1 RES   0.0000
1887 O   9.5290  41.3000   8.2670 O 1 RES   0.0000
1888 O  10.7200  43.3630   8.2670 O 1 RES   0.0000
1889 Si  10.7200  44.7390   8.7530 Si 1 RES   0.0000
1890 O  10.7200  44.7390  10.2120 O 1 RES   0.0000
1891 O  15.4850  41.9880   6.3220 O 1 RES   0.0000
1892 Si  15.4850  41.9880   0.0000 Si 1 RES   0.0000
1893 O  15.4850  43.3630   0.4860 O 1 RES   0.0000
1894 Si  15.4850  44.7390   0.9730 Si 1 RES   0.0000
1895 O  16.6760  41.3000   0.4860 O 1 RES   0.0000
1896 O  14.2940  41.3000   0.4860 O 1 RES   0.0000
1897 O  15.4850  44.7390   2.4310 O 1 RES   0.0000
1898 Si  15.4850  44.7390   3.8900 Si 1 RES   0.0000
1899 O  15.4850  43.3630   4.3770 O 1 RES   0.0000
1900 Si  15.4850  41.9880   4.8630 Si 1 RES   0.0000
1901 O  16.6760  41.3000   4.3770 O 1 RES   0.0000
1902 O  14.2940  41.3000   4.3770 O 1 RES   0.0000
1903 Si  15.4850  41.9880   7.7810 Si 1 RES   0.0000
1904 O  16.6760  41.3000   8.2670 O 1 RES   0.0000
1905 O  14.2940  41.3000   8.2670 O 1 RES   0.0000
1906 O  15.4850  43.3630   8.2670 O 1 RES   0.0000
1907 Si  15.4850  44.7390   8.7530 Si 1 RES   0.0000
1908 O  15.4850  44.7390  10.2120 O 1 RES   0.0000
1909 O  13.1030  46.1140   6.3220 O 1 RES   0.0000
1910 Si  13.1030  46.1140   0.0000 Si 1 RES   0.0000
1911 O  13.1030  47.4890   0.4860 O 1 RES   0.0000
1912 Si  13.1030  48.8650   0.9730 Si 1 RES   0.0000
1913 O  14.2940  45.4260   0.4860 O 1 RES   0.0000
1914 O  11.9120  45.4260   0.4860 O 1 RES   0.0000
1915 O  13.1030  48.8650   2.4310 O 1 RES   0.0000
1916 Si  13.1030  48.8650   3.8900 Si 1 RES   0.0000
1917 O  13.1030  47.4890   4.3770 O 1 RES   0.0000
1918 Si  13.1030  46.1140   4.8630 Si 1 RES   0.0000
1919 O  14.2940  45.4260   4.3770 O 1 RES   0.0000
1920 O  11.9120  45.4260   4.3770 O 1 RES   0.0000
1921 Si  13.1030  46.1140   7.7810 Si 1 RES   0.0000
1922 O  14.2940  45.4260   8.2670 O 1 RES   0.0000
1923 O  11.9120  45.4260   8.2670 O 1 RES   0.0000
1924 O  13.1030  47.4890   8.2670 O 1 RES   0.0000
1925 Si  13.1030  48.8650   8.7530 Si 1 RES   0.0000
1926 O  13.1030  48.8650  10.2120 O 1 RES   0.0000
1927 O  17.8670  46.1140   6.3220 O 1 RES   0.0000
1928 Si  17.8670  46.1140   0.0000 Si 1 RES   0.0000
1929 O  17.8670  47.4890   0.4860 O 1 RES   0.0000
1930 Si  17.8670  48.8650   0.9730 Si 1 RES   0.0000
1931 O  19.0580  45.4260   0.4860 O 1 RES   0.0000
1932 O  16.6760  45.4260   0.4860 O 1 RES   0.0000
1933 O  17.8670  48.8650   2.4310 O 1 RES   0.0000
1934 Si  17.8670  48.8650   3.8900 Si 1 RES   0.0000
1935 O  17.8670  47.4890   4.3770 O 1 RES   0.0000
1936 Si  17.8670  46.1140   4.8630 Si 1 RES   0.0000
1937 O  19.0580  45.4260   4.3770 O 1 RES   0.0000
1938 O  16.6760  45.4260   4.3770 O 1 RES   0.0000
1939 Si  17.8670  46.1140   7.7810 Si 1 RES   0.0000
1940 O  19.0580  45.4260   8.2670 O 1 RES   0.0000
1941 O  16.6760  45.4260   8.2670 O 1 RES   0.0000
1942 O  17.8670  47.4890   8.2670 O 1 RES   0.0000
1943 Si  17.8670  48.8650   8.7530 Si 1 RES   0.0000
1944 O  17.8670  48.8650  10.2120 O 1 RES   0.0000
1945 O  20.2500  41.9880   6.3220 O 1 RES   0.0000
1946 Si  20.2500  41.9880   0.0000 Si 1 RES   0.0000
1947 O  20.2500  43.3630   0.4860 O 1 RES   0.0000
1948 Si  20.2500  44.7390   0.9730 Si 1 RES   0.0000
1949 O  21.4410  41.3000   0.4860 O 1 RES   0.0000
1950 O  19.0580  41.3000   0.4860 O 1 RES   0.0000
1951 O  20.2500  44.7390   2.4310 O 1 RES   0.0000
1952 Si  20.2500  44.7390   3.8900 Si 1 RES   0.0000
1953 O  20.2500  43.3630   4.3770 O 1 RES   0.0000
1954 Si  20.2500  41.9880   4.8630 Si 1 RES   0.0000
1955 O  21.4410  41.3000   4.3770 O 1 RES   0.0000
1956 O  19.0580  41.3000   4.3770 O 1 RES   0.0000
1957 Si  20.2500  41.9880   7.7810 Si 1 RES   0.0000
1958 O  21.4410  41.3000   8.2670 O 1 RES   0.0000
1959 O  19.0580  41.3000   8.2670 O 1 RES   0.0000
1960 O  20.2500  43.3630   8.2670 O 1 RES   0.0000
1961 Si  20.2500  44.7390   8.7530 Si 1 RES   0.0000
1962 O  20.2500  44.7390  10.2120 O 1 RES   0.0000
1963 O  25.0140  41.9880   6.3220 O 1 RES   0.0000
1964 Si  25.0140  41.9880   0.0000 Si 1 RES   0.0000
1965 O  25.0140  43.3630   0.4860 O 1 RES   0.0000
1966 Si  25.0140  44.7390   0.9730 Si 1 RES   0.0000
1967 O  26.2050  41.3000   0.4860 O 1 RES   0.0000
1968 O  23.8230  41.3000   0.4860 O 1 RES   0.0000
1969 O  25.0140  44.7390   2.4310 O 1 RES   0.0000
1970 Si  25.0140  44.7390   3.8900 Si 1 RES   0.0000
1971 O  25.0140  43.3630   4.3770 O 1 RES   0.0000
1972 Si  25.0140  41.9880   4.8630 Si 1 RES   0.0000
1973 O  26.2050  41.3000   4.3770 O 1 RES   0.0000
1974 O  23.8230  41.3000   4.3770 O 1 RES   0.0000
1975 Si  25.0140  41.9880   7.7810 Si 1 RES   0.0000
1976 O  26.2050  41.3000   8.2670 O 1 RES   0.0000
1977 O  23.8230  41.3000   8.2670 O 1 RES   0.0000
1978 O  25.0140  43.3630   8.2670 O 1 RES   0.0000
1979 Si  25.0140  44.7390   8.7530 Si 1 RES   0.0000
1980 O  25.0140  44.7390  10.2120 O 1 RES   0.0000
1981 O  22.6320  46.1140   6.3220 O 1 RES   0.0000
1982 Si  22.6320  46.1140   0.0000 Si 1 RES   0.0000
1983 O  22.6320  47.4890   0.4860 O 1 RES   0.0000
1984 Si  22.6320  48.8650   0.9730 Si 1 RES   0.0000
1985 O  23.8230  45.4260   0.4860 O 1 RES   0.0000
1986 O  21.4410  45.4260   0.4860 O 1 RES   0.0000
1987 O  22.6320  48.8650   2.4310 O 1 RES   0.0000
1988 Si  22.6320  48.8650   3.8900 Si 1 RES   0.0000
1989 O  22.6320  47.4890   4.3770 O 1 RES   0.0000
1990 Si  22.6320  46.1140   4.8630 Si 1 RES   0.0000
1991 O  23.8230  45.4260   4.3770 O 1 RES   0.0000
1992 O  21.4410  45.4260   4.3770 O 1 RES   0.0000
1993 Si  22.6320  46.1140   7.7810 Si 1 RES   0.0000
1994 O  23.8230  45.4260   8.2670 O 1 RES   0.0000
1995 O  21.4410  45.4260   8.2670 O 1 RES   0.0000
1996 O  22.6320  47.4890   8.2670 O 1 RES   0.0000
1997 Si  22.6320  48.8650   8.7530 Si 1 RES   0.0000
1998 O  22.6320  48.8650  10.2120 O 1 RES   0.0000
1999 O  27.3960  46.1140   6.3220 O 1 RES   0.0000
2000 Si  27.3960  46.1140   0.0000 Si 1 RES   0.0000
2001 O  27.3960  47.4890   0.4860 O 1 RES   0.0000
2002 Si  27.3960  48.8650   0.9730 Si 1 RES   0.0000
2003 O  28.5870  45.4260   0.4860 O 1 RES   0.0000
2004 O  26.2050  45.4260   0.4860 O 1 RES   0.0000
2005 O  27.3960  48.8650   2.4310 O 1 RES   0.0000
2006 Si  27.3960  48.8650   3.8900 Si 1 RES   0.0000
2007 O  27.3960  47.4890   4.3770 O 1 RES   0.0000
2008 Si  27.3960  46.1140   4.8630 Si 1 RES   0.0000
2009 O  28.5870  45.4260   4.3770 O 1 RES   0.0000
2010 O  26.2050  45.4260   4.3770 O 1 RES   0.0000
2011 Si  27.3960  46.1140   7.7810 Si 1 RES   0.0000
2012 O  28.5870  45.4260   8.2670 O 1 RES   0.0000
2013 O  26.2050  45.4260   8.2670 O 1 RES   0.0000
2014 O  27.3960  47.4890   8.2670 O 1 RES   0.0000
2015 Si  27.3960  48.8650   8.7530 Si 1 RES   0.0000
2016 O  27.3960  48.8650  10.2120 O 1 RES   0.0000
2017 O  29.7790  41.9880   6.3220 O 1 RES   0.0000
2018 Si  29.7790  41.9880   0.0000 Si 1 RES   0.0000
2019 O  29.7790  43.3630   0.4860 O 1 RES   0.0000
2020 Si  29.7790  44.7390   0.9730 Si 1 RES   0.0000
2021 O  30.9700  41.3000   0.4860 O 1 RES   0.0000
2022 O  28.5870  41.3000   0.4860 O 1 RES   0.0000
2023 O  29.7790  44.7390   2.4310 O 1 RES   0.0000
2024 Si  29.7790  44.7390   3.8900 Si 1 RES   0.0000
2025 O  29.7790  43.3630   4.3770 O 1 RES   0.0000
2026 Si  29.7790  41.9880   4.8630 Si 1 RES   0.0000
2027 O  30.9700  41.3000   4.3770 O 1 RES   0.0000
2028 O  28.5870  41.3000   4.3770 O 1 RES   0.0000
2029 Si  29.7790  41.9880   7.7810 Si 1 RES   0.0000
2030 O  30.9700  41.3000   8.2670 O 1 RES   0.0000
2031 O  28.5870  41.3000   8.2670 O 1 RES   0.0000
2032 O  29.7790  43.3630   8.2670 O 1 RES   0.0000
2033 Si  29.7790  44.7390   8.7530 Si 1 RES   0.0000
2034 O  29.7790  44.7390  10.2120 O 1 RES   0.0000
2035 O  34.5430  41.9880   6.3220 O 1 RES   0.0000
2036 Si  34.5430  41.9880   0.0000 Si 1 RES   0.0000
2037 O  34.5430  43.3630   0.4860 O 1 RES   0.0000
2038 Si  34.5430  44.7390   0.9730 Si 1 RES   0.0000
2039 O  35.7340  41.3000   0.4860 O 1 RES   0.0000
2040 O  33.3520  41.3000   0.4860 O 1 RES   0.0000
2041 O  34.5430  44.7390   2.4310 O 1 RES   0.0000
2042 Si  34.5430  44.7390   3.8900 Si 1 RES   0.0000
2043 O  34.5430  43.3630   4.3770 O 1 RES   0.0000
2044 Si  34.5430  41.9880   4.8630 Si 1 RES   0.0000
2045 O  35.7340  41.3000   4.3770 O 1 RES   0.0000
2046 O  33.3520  41.3000   4.3770 O 1 RES   0.0000
2047 Si  34.5430  41.9880   7.7810 Si 1 RES   0.0000
2048 O  35.7340  41.3000   8.2670 O 1 RES   0.0000
2049 O  33.3520  41.3000   8.2670 O 1 RES   0.0000
2050 O  34.5430  43.3630   8.2670 O 1 RES   0.0000
2051 Si  34.5430  44.7390   8.7530 Si 1 RES   0.0000
2052 O  34.5430  44.7390  10.2120 O 1 RES   0.0000
2053 O  32.1610  46.1140   6.3220 O 1 RES   0.0000
2054 Si  32.1610  46.1140   0.0000 Si 1 RES   0.0000
2055 O  32.1610  47.4890   0.4860 O 1 RES   0.0000
2056 Si  32.1610  48.8650   0.9730 Si 1 RES   0.0000
2057 O  33.3520  45.4260   0.4860 O 1 RES   0.0000
2058 O  30.9700  45.4260   0.4860 O 1 RES   0.0000
2059 O  32.1610  48.8650   2.4310 O 1 RES   0.0000
2060 Si  32.1610  48.8650   3.8900 Si 1 RES   0.0000
2061 O  32.1610  47.4890   4.3770 O 1 RES   0.0000
2062 Si  32.1610  46.1140   4.8630 Si 1 RES   0.0000
2063 O  33.3520  45.4260   4.3770 O 1 RES   0.0000
2064 O  30.9700  45.4260   4.3770 O 1 RES   0.0000
2065 Si  32.1610  46.1140   7.7810 Si 1 RES   0.0000
2066 O  33.3520  45.4260   8.2670 O 1 RES   0.0000
2067 O  30.9700  45.4260   8.2670 O 1 RES   0.0000
2068 O  32.1610  47.4890   8.2670 O 1 RES   0.0000
2069 Si  32.1610  48.8650   8.7530 Si 1 RES   0.0000
2070 O  32.1610  48.8650  10.2120 O 1 RES   0.0000
2071 O  36.9250  46.1140   6.3220 O 1 RES   0.0000
2072 Si  36.9250  46.1140   0.0000 Si 1 RES   0.0000
2073 O  36.9250  47.4890   0.4860 O 1 RES   0.0000
2074 Si  36.9250  48.8650   0.9730 Si 1 RES   0.0000
2075 O  38.1170  45.4260   0.4860 O 1 RES   0.0000
2076 O  35.7340  45.4260   0.4860 O 1 RES   0.0000
2077 O  36.9250  48.8650   2.4310 O 1 RES   0.0000
2078 Si  36.9250  48.8650   3.8900 Si 1 RES   0.0000
2079 O  36.9250  47.4890   4.3770 O 1 RES   0.0000
2080 Si  36.9250  46.1140   4.8630 Si 1 RES   0.0000
2081 O  38.1170  45.4260   4.3770 O 1 RES   0.0000
2082 O  35.7340  45.4260   4.3770 O 1 RES   0.0000
2083 Si  36.9250  46.1140   7.7810 Si 1 RES   0.0000
2084 O  38.1170  45.4260   8.2670 O 1 RES   0.0000
2085 O  35.7340  45.4260   8.2670 O 1 RES   0.0000
2086 O  36.9250  47.4890   8.2670 O 1 RES   0.0000
2087 Si  36.9250  48.8650   8.7530 Si 1 RES   0.0000
2088 O  36.9250  48.8650  10.2120 O 1 RES   0.0000
2089 O  39.3080  41.9880   6.3220 O 1 RES   0.0000
2090 Si  39.3080  41.9880   0.0000 Si 1 RES   0.0000
2091 O  39.3080  43.3630   0.4860 O 1 RES   0.0000
2092 Si  39.3080  44.7390   0.9730 Si 1 RES   0.0000
2093 O  40.4990  41.3000   0.4860 O 1 RES   0.0000
2094 O  38.1170  41.3000   0.4860 O 1 RES   0.0000
2095 O  39.3080  44.7390   2.4310 O 1 RES   0.0000
2096 Si  39.3080  44.7390   3.8900 Si 1 RES   0.0000
2097 O  39.3080  43.3630   4.3770 O 1 RES   0.0000
2098 Si  39.3080  41.9880   4.8630 Si 1 RES   0.0000
2099 O  40.4990  41.3000   4.3770 O 1 RES   0.0000
2100 O  38.1170  41.3000   4.3770 O 1 RES   0.0000
2101 Si  39.3080  41.9880   7.7810 Si 1 RES   0.0000
2102 O  40.4990  41.3000   8.2670 O 1 RES   0.0000
2103 O  38.1170  41.3000   8.2670 O 1 RES   0.0000
2104 O  39.3080  43.3630   8.2670 O 1 RES   0.0000
2105 Si  39.3080  44.7390   8.7530 Si 1 RES   0.0000
2106 O  39.3080  44.7390  10.2120 O 1 RES   0.0000
2107 O  44.0720  41.9880   6.3220 O 1 RES   0.0000
2108 Si  44.0720  41.9880   0.0000 Si 1 RES   0.0000
2109 O  44.0720  43.3630   0.4860 O 1 RES   0.0000
2110 Si  44.0720  44.7390   0.9730 Si 1 RES   0.0000
2111 O  45.2640  41.3000   0.4860 O 1 RES   0.0000
2112 O  42.8810  41.3000   0.4860 O 1 RES   0.0000
2113 O  44.0720  44.7390   2.4310 O 1 RES   0.0000
2114 Si  44.0720  44.7390   3.8900 Si 1 RES   0.0000
2115 O  44.0720  43.3630   4.3770 O 1 RES   0.0000
2116 Si  44.0720  41.9880   4.8630 Si 1 RES   0.0000
2117 O  45.2640  41.3000   4.3770 O 1 RES   0.0000
2118 O  42.8810  41.3000   4.3770 O 1 RES   0.0000
2119 Si  44.0720  41.9880   7.7810 Si 1 RES   0.0000
2120 O  45.2640  41.3000   8.2670 O 1 RES   0.0000
2121 O  42.8810  41.3000   8.2670 O 1 RES   0.0000
2122 O  44.0720  43.3630   8.2670 O 1 RES   0.0000
2123 Si  44.0720  44.7390   8.7530 Si 1 RES   0.0000
2124 O  44.0720  44.7390  10.2120 O 1 RES   0.0000
2125 O  41.6900  46.1140   6.3220 O 1 RES   0.0000
2126 Si  41.6900  46.1140   0.0000 Si 1 RES   0.0000
2127 O  41.6900  47.4890   0.4860 O 1 RES   0.0000
2128 Si  41.6900  48.8650   0.9730 Si 1 RES   0.0000
2129 O  42.8810  45.4260   0.4860 O 1 RES   0.0000
2130 O  40.4990  45.4260   0.4860 O 1 RES   0.0000
2131 O  41.6900  48.8650   2.4310 O 1 RES   0.0000
2132 Si  41.6900  48.8650   3.8900 Si 1 RES   0.0000
2133 O  41.6900  47.4890   4.3770 O 1 RES   0.0000
2134 Si  41.6900  46.1140   4.8630 Si 1 RES   0.0000
2135 O  42.8810  45.4260   4.3770 O 1 RES   0.0000
2136 O  40.4990  45.4260   4.3770 O 1 RES   0.0000
2137 Si  41.6900  46.1140   7.7810 Si 1 RES   0.0000
2138 O  42.8810  45.4260   8.2670 O 1 RES   0.0000
2139 O  40.4990  45.4260   8.2670 O 1 RES   0.0000
2140 O  41.6900  47.4890   8.2670 O 1 RES   0.0000
2141 Si  41.6900  48.8650   8.7530 Si 1 RES   0.0000
2142 O  41.6900  48.8650  10.2120 O 1 RES   0.0000
2143 O  46.4550  46.1140   6.3220 O 1 RES   0.0000
2144 Si  46.4550  46.1140   0.0000 Si 1 RES   0.0000
2145 O  46.4550  47.4890   0.4860 O 1 RES   0.0000
2146 Si  46.4550  48.8650   0.9730 Si 1 RES   0.0000
2147 O  -0.0430  45.4260   0.4860 O 1 RES   0.0000
2148 O  45.2640  45.4260   0.4860 O 1 RES   0.0000
2149 O  46.4550  48.8650   2.4310 O 1 RES   0.0000
2150 Si  46.4550  48.8650   3.8900 Si 1 RES   0.0000
2151 O  46.4550  47.4890   4.3770 O 1 RES   0.0000
2152 Si  46.4550  46.1140   4.8630 Si 1 RES   0.0000
2153 O  -0.0430  45.4260   4.3770 O 1 RES   0.0000
2154 O  45.2640  45.4260   4.3770 O 1 RES   0.0000
2155 Si  46.4550  46.1140   7.7810 Si 1 RES   0.0000
2156 O  -0.0430  45.4260   8.2670 O 1 RES   0.0000
2157 O  45.2640  45.4260   8.2670 O 1 RES   0.0000
2158 O  46.4550  47.4890   8.2670 O 1 RES   0.0000
2159 Si  46.4550  48.8650   8.7530 Si 1 RES   0.0000
2160 O  46.4550  48.8650  10.2120 O 1 RES   0.0000
2161 O   1.1910  50.2400   6.3220 O 1 RES   0.0000
2162 Si   1.1910  50.2400   0.0000 Si 1 RES   0.0000
2163 O   1.1910  51.6160   0.4860 O 1 RES   0.0000
2164 Si   1.1910  52.9910   0.9730 Si 1 RES   0.0000
2165 O   2.3820  49.5530   0.4860 O 1 RES   0.0000
2166 O   0.0000  49.5530   0.4860 O 1 RES   0.0000
2167 O   1.1910  52.9910   2.4310 O 1 RES   0.0000
2168 Si   1.1910  52.9910   3.8900 Si 1 RES   0.0000
2169 O   1.1910  51.6160   4.3770 O 1 RES   0.0000
2170 Si   1.1910  50.2400   4.8630 Si 1 RES   0.0000
2171 O   2.3820  49.5530   4.3770 O 1 RES   0.0000
2172 O   0.0000  49.5530   4.3770 O 1 RES   0.0000
2173 Si   1.1910  50.2400   7.7810 Si 1 RES   0.0000
2174 O   2.3820  49.5530   8.2670 O 1 RES   0.0000
2175 O   0.0000  49.5530   8.2670 O 1 RES   0.0000
2176 O   1.1910  51.6160   8.2670 O 1 RES   0.0000
2177 Si   1.1910  52.9910   8.7530 Si 1 RES   0.0000
2178 O   1.1910  52.9910  10.2120 O 1 RES   0.0000
2179 O   5.9560  50.2400   6.3220 O 1 RES   0.0000
2180 Si   5.9560  50.2400   0.0000 Si 1 RES   0.0000
2181 O   5.9560  51.6160   0.4860 O 1 RES   0.0000
2182 Si   5.9560  52.9910   0.9730 Si 1 RES   0.0000
2183 O   7.1470  49.5530   0.4860 O 1 RES   0.0000
2184 O   4.7650  49.5530   0.4860 O 1 RES   0.0000
2185 O   5.9560  52.9910   2.4310 O 1 RES   0.0000
2186 Si   5.9560  52.9910   3.8900 Si 1 RES   0.0000
2187 O   5.9560  51.6160   4.3770 O 1 RES   0.0000
2188 Si   5.9560  50.2400   4.8630 Si 1 RES   0.0000
2189 O   7.1470  49.5530   4.3770 O 1 RES   0.0000
2190 O   4.7650  49.5530   4.3770 O 1 RES   0.0000
2191 Si   5.9560  50.2400   7.7810 Si 1 RES   0.0000
2192 O   7.1470  49.5530   8.2670 O 1 RES   0.0000
2193 O   4.7650  49.5530   8.2670 O 1 RES   0.0000
2194 O   5.9560  51.6160   8.2670 O 1 RES   0.0000
2195 Si   5.9560  52.9910   8.7530 Si 1 RES   0.0000
2196 O   5.9560  52.9910  10.2120 O 1 RES   0.0000
2197 O   3.5730  54.3660   6.3220 O 1 RES   0.0000
2198 Si   3.5730  54.3660   0.0000 Si 1 RES   0.0000
2199 O   3.5730  55.7420   0.4860 O 1 RES   0.0000
2200 Si   3.5730  57.1170   0.9730 Si 1 RES   0.0000
2201 O   4.7650  53.6790   0.4860 O 1 RES   0.0000
2202 O   2.3820  53.6790   0.4860 O 1 RES   0.0000
2203 O   3.5730  57.1170   2.4310 O 1 RES   0.0000
2204 Si   3.5730  57.1170   3.8900 Si 1 RES   0.0000
2205 O   3.5730  55.7420   4.3770 O 1 RES   0.0000
2206 Si   3.5730  54.3660   4.8630 Si 1 RES   0.0000
2207 O   4.7650  53.6790   4.3770 O 1 RES   0.0000
2208 O   2.3820  53.6790   4.3770 O 1 RES   0.0000
2209 Si   3.5730  54.3660   7.7810 Si 1 RES   0.0000
2210 O   4.7650  53.6790   8.2670 O 1 RES   0.0000
2211 O   2.3820  53.6790   8.2670 O 1 RES   0.0000
2212 O   3.5730  55.7420   8.2670 O 1 RES   0.0000
2213 Si   3.5730  57.1170   8.7530 Si 1 RES   0.0000
2214 O   3.5730  57.1170  10.2120 O 1 RES   0.0000
2215 O   8.3380  54.3660   6.3220 O 1 RES   0.0000
2216 Si   8.3380  54.3660   0.0000 Si 1 RES   0.0000
2217 O   8.3380  55.7420   0.4860 O 1 RES   0.0000
2218 Si   8.3380  57.1170   0.9730 Si 1 RES   0.0000
2219 O   9.5290  53.6790   0.4860 O 1 RES   0.0000
2220 O   7.1470  53.6790   0.4860 O 1 RES   0.0000
2221 O   8.3380  57.1170   2.4310 O 1 RES   0.0000
2222 Si   8.3380  57.1170   3.8900 Si 1 RES   0.0000
2223 O   8.3380  55.7420   4.3770 O 1 RES   0.0000
2224 Si   8.3380  54.3660   4.8630 Si 1 RES   0.0000
2225 O   9.5290  53.6790   4.3770 O 1 RES   0.0000
2226 O   7.1470  53.6790   4.3770 O 1 RES   0.0000
2227 Si   8.3380  54.3660   7.7810 Si 1 RES   0.0000
2228 O   9.5290  53.6790   8.2670 O 1 RES   0.0000
2229 O   7.1470  53.6790   8.2670 O 1 RES   0.0000
2230 O   8.3380  55.7420   8.2670 O 1 RES   0.0000
2231 Si   8.3380  57.1170   8.7530 Si 1 RES   0.0000
2232 O   8.3380  57.1170  10.2120 O 1 RES   0.0000
2233 O  10.7200  50.2400   6.3220 O 1 RES   0.0000
2234 Si  10.7200  50.2400   0.0000 Si 1 RES   0.0000
2235 O  10.7200  51.6160   0.4860 O 1 RES   0.0000
2236 Si  10.7200  52.9910   0.9730 Si 1 RES   0.0000
2237 O  11.9120  49.5530   0.4860 O 1 RES   0.0000
2238 O   9.5290  49.5530   0.4860 O 1 RES   0.0000
2239 O  10.7200  52.9910   2.4310 O 1 RES   0.0000
2240 Si  10.7200  52.9910   3.8900 Si 1 RES   0.0000
2241 O  10.7200  51.6160   4.3770 O 1 RES   0.0000
2242 Si  10.7200  50.2400   4.8630 Si 1 RES   0.0000
2243 O  11.9120  49.5530   4.3770 O 1 RES   0.0000
2244 O   9.5290  49.5530   4.3770 O 1 RES   0.0000
2245 Si  10.7200  50.2400   7.7810 Si 1 RES   0.0000
2246 O  11.9120  49.5530   8.2670 O 1 RES   0.0000
2247 O   9.5290  49.5530   8.2670 O 1 RES   0.0000
2248 O  10.7200  51.6160   8.2670 O 1 RES   0.0000
2249 Si  10.7200  52.9910   8.7530 Si 1 RES   0.0000
2250 O  10.7200  52.9910  10.2120 O 1 RES   0.0000
2251 O  15.4850  50.2400   6.3220 O 1 RES   0.0000
2252 Si  15.4850  50.2400   0.0000 Si 1 RES   0.0000
2253 O  15.4850  51.6160   0.4860 O 1 RES   0.0000
2254 Si  15.4850  52.9910   0.9730 Si 1 RES   0.0000
2255 O  16.6760  49.5530   0.4860 O 1 RES   0.0000
2256 O  14.2940  49.5530   0.4860 O 1 RES   0.0000
2257 O  15.4850  52.9910   2.4310 O 1 RES   0.0000
2258 Si  15.4850  52.9910   3.8900 Si 1 RES   0.0000
2259 O  15.4850  51.6160   4.3770 O 1 RES   0.0000
2260 Si  15.4850  50.2400   4.8630 Si 1 RES   0.0000
2261 O  16.6760  49.5530   4.3770 O 1 RES   0.0000
2262 O  14.2940  49.5530   4.3770 O 1 RES   0.0000
2263 Si  15.4850  50.2400   7.7810 Si 1 RES   0.0000
2264 O  16.6760  49.5530   8.2670 O 1 RES   0.0000
2265 O  14.2940  49.5530   8.2670 O 1 RES   0.0000
2266 O  15.4850  51.6160   8.2670 O 1 RES   0.0000
2267 Si  15.4850  52.9910   8.7530 Si 1 RES   0.0000
2268 O  15.4850  52.9910  10.2120 O 1 RES   0.0000
2269 O  13.1030  54.3660   6.3220 O 1 RES   0.0000
2270 Si  13.1030  54.3660   0.0000 Si 1 RES   0.0000
2271 O  13.1030  55.7420   0.4860 O 1 RES   0.0000
2272 Si  13.1030  57.1170   0.9730 Si 1 RES   0.0000
2273 O  14.2940  53.6790   0.4860 O 1 RES   0.0000
2274 O  11.9120  53.6790   0.4860 O 1 RES   0.0000
2275 O  13.1030  57.1170   2.4310 O 1 RES   0.0000
2276 Si  13.1030  57.1170   3.8900 Si 1 RES   0.0000
2277 O  13.1030  55.7420   4.3770 O 1 RES   0.0000
2278 Si  13.1030  54.3660   4.8630 Si 1 RES   0.0000
2279 O  14.2940  53.6790   4.3770 O 1 RES   0.0000
2280 O  11.9120  53.6790   4.3770 O 1 RES   0.0000
2281 Si  13.1030  54.3660   7.7810 Si 1 RES   0.0000
2282 O  14.2940  53.6790   8.2670 O 1 RES   0.0000
2283 O  11.9120  53.6790   8.2670 O 1 RES   0.0000
2284 O  13.1030  55.7420   8.2670 O 1 RES   0.0000
2285 Si  13.1030  57.1170   8.7530 Si 1 RES   0.0000
2286 O  13.1030  57.1170  10.2120 O 1 RES   0.0000
2287 O  17.8670  54.3660   6.3220 O 1 RES   0.0000
2288 Si  17.8670  54.3660   0.0000 Si 1 RES   0.0000
2289 O  17.8670  55.7420   0.4860 O 1 RES   0.0000
2290 Si  17.8670  57.1170   0.9730 Si 1 RES   0.0000
2291 O  19.0580  53.6790   0.4860 O 1 RES   0.0000
2292 O  16.6760  53.6790   0.4860 O 1 RES   0.0000
2293 O  17.8670  57.1170   2.4310 O 1 RES   0.0000
2294 Si  17.8670  57.1170   3.8900 Si 1 RES   0.0000
2295 O  17.8670  55.7420   4.3770 O 1 RES   0.0000
2296 Si  17.8670  54.3660   4.8630 Si 1 RES   0.0000
2297 O  19.0580  53.6790   4.3770 O 1 RES   0.0000
2298 O  16.6760  53.6790   4.3770 O 1 RES   0.0000
2299 Si  17.8670  54.3660   7.7810 Si 1 RES   0.0000
2300 O  19.0580  53.6790   8.2670 O 1 RES   0.0000
2301 O  16.6760  53.6790   8.2670 O 1 RES   0.0000
2302 O  17.8670  55.7420   8.2670 O 1 RES   0.0000
2303 Si  17.8670  57.1170   8.7530 Si 1 RES   0.0000
2304 O  17.8670  57.1170  10.2120 O 1 RES   0.0000
2305 O  20.2500  50.2400   6.3220 O 1 RES   0.0000
2306 Si  20.2500  50.2400   0.0000 Si 1 RES   0.0000
2307 O  20.2500  51.6160   0.4860 O 1 RES   0.0000
2308 Si  20.2500  52.9910   0.9730 Si 1 RES   0.0000
2309 O  21.4410  49.5530   0.4860 O 1 RES   0.0000
2310 O  19.0580  49.5530   0.4860 O 1 RES   0.0000
2311 O  20.2500  52.9910   2.4310 O 1 RES   0.0000
2312 Si  20.2500  52.9910   3.8900 Si 1 RES   0.0000
2313 O  20.2500  51.6160   4.3770 O 1 RES   0.0000
2314 Si  20.2500  50.2400   4.8630 Si 1 RES   0.0000
2315 O  21.4410  49.5530   4.3770 O 1 RES   0.0000
2316 O  19.0580  49.5530   4.3770 O 1 RES   0.0000
2317 Si  20.2500  50.2400   7.7810 Si 1 RES   0.0000
2318 O  21.4410  49.5530   8.2670 O 1 RES   0.0000
2319 O  19.0580  49.5530   8.2670 O 1 RES   0.0000
2320 O  20.2500  51.6160   8.2670 O 1 RES   0.0000
2321 Si  20.2500  52.9910   8.7530 Si 1 RES   0.0000
2322 O  20.2500  52.9910  10.2120 O 1 RES   0.0000
2323 O  25.0140  50.2400   6.3220 O 1 RES   0.0000
2324 Si  25.0140  50.2400   0.0000 Si 1 RES   0.0000
2325 O  25.0140  51.6160   0.4860 O 1 RES   0.0000
2326 Si  25.0140  52.9910   0.9730 Si 1 RES   0.0000
2327 O  26.2050  49.5530   0.4860 O 1 RES   0.0000
2328 O  23.8230  49.5530   0.4860 O 1 RES   0.0000
2329 O  25.0140  52.9910   2.4310 O 1 RES   0.0000
2330 Si  25.0140  52.9910   3.8900 Si 1 RES   0.0000
2331 O  25.0140  51.6160   4.3770 O 1 RES   0.0000
2332 Si  25.0140  50.2400   4.8630 Si 1 RES   0.0000
2333 O  26.2050  49.5530   4.3770 O 1 RES   0.0000
2334 O  23.8230  49.5530   4.3770 O 1 RES   0.0000
2335 Si  25.0140  50.2400   7.7810 Si 1 RES   0.0000
2336 O  26.2050  49.5530   8.2670 O 1 RES   0.0000
2337 O  23.8230  49.5530   8.2670 O 1 RES   0.0000
2338 O  25.0140  51.6160   8.2670 O 1 RES   0.0000
2339 Si  25.0140  52.9910   8.7530 Si 1 RES   0.0000
2340 O  25.0140  52.9910  10.2120 O 1 RES   0.0000
2341 O  22.6320  54.3660   6.3220 O 1 RES   0.0000
2342 Si  22.6320  54.3660   0.0000 Si 1 RES   0.0000
2343 O  22.6320  55.7420   0.4860 O 1 RES   0.0000
2344 Si  22.6320  57.1170   0.9730 Si 1 RES   0.0000
2345 O  23.8230  53.6790   0.4860 O 1 RES   0.0000
2346 O  21.4410  53.6790   0.4860 O 1 RES   0.0000
2347 O  22.6320  57.1170   2.4310 O 1 RES   0.0000
2348 Si  22.6320  57.1170   3.8900 Si 1 RES   0.0000
2349 O  22.6320  55.7420   4.3770 O 1 RES   0.0000
2350 Si  22.6320  54.3660   4.8630 Si 1 RES   0.0000
2351 O  23.8230  53.6790   4.3770 O 1 RES   0.0000
2352 O  21.4410  53.6790   4.3770 O 1 RES   0.0000
2353 Si  22.6320  54.3660   7.7810 Si 1 RES   0.0000
2354 O  23.8230  53.6790   8.2670 O 1 RES   0.0000
2355 O  21.4410  53.6790   8.2670 O 1 RES   0.0000
2356 O  22.6320  55.7420   8.2670 O 1 RES   0.0000
2357 Si  22.6320  57.1170   8.7530 Si 1 RES   0.0000
2358 O  22.6320  57.1170  10.2120 O 1 RES   0.0000
2359 O  27.3960  54.3660   6.3220 O 1 RES   0.0000
2360 Si  27.3960  54.3660   0.0000 Si 1 RES   0.0000
2361 O  27.3960  55.7420   0.4860 O 1 RES   0.0000
2362 Si  27.3960  57.1170   0.9730 Si 1 RES   0.0000
2363 O  28.5870  53.6790   0.4860 O 1 RES   0.0000
2364 O  26.2050  53.6790   0.4860 O 1 RES   0.0000
2365 O  27.3960  57.1170   2.4310 O 1 RES   0.0000
2366 Si  27.3960  57.1170   3.8900 Si 1 RES   0.0000
2367 O  27.3960  55.7420   4.3770 O 1 RES   0.0000
2368 Si  27.3960  54.3660   4.8630 Si 1 RES   0.0000
2369 O  28.5870  53.6790   4.3770 O 1 RES   0.0000
2370 O  26.2050  53.6790   4.3770 O 1 RES   0.0000
2371 Si  27.3960  54.3660   7.7810 Si 1 RES   0.0000
2372 O  28.5870  53.6790   8.2670 O 1 RES   0.0000
2373 O  26.2050  53.6790   8.2670 O 1 RES   0.0000
2374 O  27.3960  55.7420   8.2670 O 1 RES   0.0000
2375 Si  27.3960  57.1170   8.7530 Si 1 RES   0.0000
2376 O  27.3960  57.1170  10.2120 O 1 RES   0.0000
2377 O  29.7790  50.2400   6.3220 O 1 RES   0.0000
2378 Si  29.7790  50.2400   0.0000 Si 1 RES   0.0000
2379 O  29.7790  51.6160   0.4860 O 1 RES   0.0000
2380 Si  29.7790  52.9910   0.9730 Si 1 RES   0.0000
2381 O  30.9700  49.5530   0.4860 O 1 RES   0.0000
2382 O  28.5870  49.5530   0.4860 O 1 RES   0.0000
2383 O  29.7790  52.9910   2.4310 O 1 RES   0.0000
2384 Si  29.7790  52.9910   3.8900 Si 1 RES   0.0000
2385 O  29.7790  51.6160   4.3770 O 1 RES   0.0000
2386 Si  29.7790  50.2400   4.8630 Si 1 RES   0.0000
2387 O  30.9700  49.5530   4.3770 O 1 RES   0.0000
2388 O  28.5870  49.5530   4.3770 O 1 RES   0.0000
2389 Si  29.7790  50.2400   7.7810 Si 1 RES   0.0000
2390 O  30.9700  49.5530   8.2670 O 1 RES   0.0000
2391 O  28.5870  49.5530   8.2670 O 1 RES   0.0000
2392 O  29.7790  51.6160   8.2670 O 1 RES   0.0000
2393 Si  29.7790  52.9910   8.7530 Si 1 RES   0.0000
2394 O  29.7790  52.9910  10.2120 O 1 RES   0.0000
2395 O  34.5430  50.2400   6.3220 O 1 RES   0.0000
2396 Si  34.5430  50.2400   0.0000 Si 1 RES   0.0000
2397 O  34.5430  51.6160   0.4860 O 1 RES   0.0000
2398 Si  34.5430  52.9910   0.9730 Si 1 RES   0.0000
2399 O  35.7340  49.5530   0.4860 O 1 RES   0.0000
2400 O  33.3520  49.5530   0.4860 O 1 RES   0.0000
2401 O  34.5430  52.9910   2.4310 O 1 RES   0.0000
2402 Si  34.5430  52.9910   3.8900 Si 1 RES   0.0000
2403 O  34.5430  51.6160   4.3770 O 1 RES   0.0000
2404 Si  34.5430  50.2400   4.8630 Si 1 RES   0.0000
2405 O  35.7340  49.5530   4.3770 O 1 RES   0.0000
2406 O  33.3520  49.5530   4.3770 O 1 RES   0.0000
2407 Si  34.5430  50.2400   7.7810 Si 1 RES   0.0000
2408 O  35.7340  49.5530   8.2670 O 1 RES   0.0000
2409 O  33.3520  49.5530   8.2670 O 1 RES   0.0000
2410 O  34.5430  51.6160   8.2670 O 1 RES   0.0000
2411 Si  34.5430  52.9910   8.7530 Si 1 RES   0.0000
2412 O  34.5430  52.9910  10.2120 O 1 RES   0.0000
2413 O  32.1610  54.3660   6.3220 O 1 RES   0.0000
2414 Si  32.1610  54.3660   0.0000 Si 1 RES   0.0000
2415 O  32.1610  55.7420   0.4860 O 1 RES   0.0000
2416 Si  32.1610  57.1170   0.9730 Si 1 RES   0.0000
2417 O  33.3520  53.6790   0.4860 O 1 RES   0.0000
2418 O  30.9700  53.6790   0.4860 O 1 RES   0.0000
2419 O  32.1610  57.1170   2.4310 O 1 RES   0.0000
2420 Si  32.1610  57.1170   3.8900 Si 1 RES   0.0000
2421 O  32.1610  55.7420   4.3770 O 1 RES   0.0000
2422 Si  32.1610  54.3660   4.8630 Si 1 RES   0.0000
2423 O  33.3520  53.6790   4.3770 O 1 RES   0.0000
2424 O  30.9700  53.6790   4.3770 O 1 RES   0.0000
2425 Si  32.1610  54.3660   7.7810 Si 1 RES   0.0000
2426 O  33.3520  53.6790   8.2670 O 1 RES   0.0000
2427 O  30.9700  53.6790   8.2670 O 1 RES   0.0000
2428 O  32.1610  55.7420   8.2670 O 1 RES   0.0000
2429 Si  32.1610  57.1170   8.7530 Si 1 RES   0.0000
2430 O  32.1610  57.1170  10.2120 O 1 RES   0.0000
2431 O  36.9250  54.3660   6.3220 O 1 RES   0.0000
2432 Si  36.9250  54.3660   0.0000 Si 1 RES   0.0000
2433 O  36.9250  55.7420   0.4860 O 1 RES   0.0000
2434 Si  36.9250  57.1170   0.9730 Si 1 RES   0.0000
2435 O  38.1170  53.6790   0.4860 O 1 RES   0.0000
2436 O  35.7340  53.6790   0.4860 O 1 RES   0.0000
2437 O  36.9250  57.1170   2.4310 O 1 RES   0.0000
2438 Si  36.9250  57.1170   3.8900 Si 1 RES   0.0000
2439 O  36.9250  55.7420   4.3770 O 1 RES   0.0000
2440 Si  36.9250  54.3660   4.8630 Si 1 RES   0.0000
2441 O  38.1170  53.6790   4.3770 O 1 RES   0.0000
2442 O  35.7340  53.6790   4.3770 O 1 RES   0.0000
2443 Si  36.9250  54.3660   7.7810 Si 1 RES   0.0000
2444 O  38.1170  53.6790   8.2670 O 1 RES   0.0000
2445 O  35.7340  53.6790   8.2670 O 1 RES   0.0000
2446 O  36.9250  55.7420   8.2670 O 1 RES   0.0000
2447 Si  36.9250  57.1170   8.7530 Si 1 RES   0.0000
2448 O  36.9250  57.1170  10.2120 O 1 RES   0.0000
2449 O  39.3080  50.2400   6.3220 O 1 RES   0.0000
2450 Si  39.3080  50.2400   0.0000 Si 1 RES   0.0000
2451 O  39.3080  51.6160   0.4860 O 1 RES   0.0000
2452 Si  39.3080  52.9910   0.9730 Si 1 RES   0.0000
2453 O  40.4990  49.5530   0.4860 O 1 RES   0.0000
2454 O  38.1170  49.5530   0.4860 O 1 RES   0.0000
2455 O  39.3080  52.9910   2.4310 O 1 RES   0.0000
2456 Si  39.3080  52.9910   3.8900 Si 1 RES   0.0000
2457 O  39.3080  51.6160   4.3770 O 1 RES   0.0000
2458 Si  39.3080  50.2400   4.8630 Si 1 RES   0.0000
2459 O  40.4990  49.5530   4.3770 O 1 RES   0.0000
2460 O  38.1170  49.5530   4.3770 O 1 RES   0.0000
2461 Si  39.3080  50.2400   7.7810 Si 1 RES   0.0000
2462 O  40.4990  49.5530   8.2670 O 1 RES   0.0000
2463 O  38.1170  49.5530   8.2670 O 1 RES   0.0000
2464 O  39.3080  51.6160   8.2670 O 1 RES   0.0000
2465 Si  39.3080  52.9910   8.7530 Si 1 RES   0.0000
2466 O  39.3080  52.9910  10.2120 O 1 RES   0.0000
2467 O  44.0720  50.2400   6.3220 O 1 RES   0.0000
2468 Si  44.0720  50.2400   0.0000 Si 1 RES   0.0000
2469 O  44.0720  51.6160   0.4860 O 1 RES   0.0000
2470 Si  44.0720  52.9910   0.9730 Si 1 RES   0.0000
2471 O  45.2640  49.5530   0.4860 O 1 RES   0.0000
2472 O  42.8810  49.5530   0.4860 O 1 RES   0.0000
2473 O  44.0720  52.9910   2.4310 O 1 RES   0.0000
2474 Si  44.0720  52.9910   3.8900 Si 1 RES   0.0000
2475 O  44.0720  51.6160   4.3770 O 1 RES   0.0000
2476 Si  44.0720  50.2400   4.8630 Si 1 RES   0.0000
2477 O  45.2640  49.5530   4.3770 O 1 RES   0.0000
2478 O  42.8810  49.5530   4.3770 O 1 RES   0.0000
2479 Si  44.0720  50.2400   7.7810 Si 1 RES   0.0000
2480 O  45.2640  49.5530   8.2670 O 1 RES   0.0000
2481 O  42.8810  49.5530   8.2670 O 1 RES   0.0000
2482 O  44.0720  51.6160   8.2670 O 1 RES   0.0000
2483 Si  44.0720  52.9910   8.7530 Si 1 RES   0.0000
2484 O  44.0720  52.9910  10.2120 O 1 RES   0.0000
2485 O  41.6900  54.3660   6.3220 O 1 RES   0.0000
2486 Si  41.6900  54.3660   0.0000 Si 1 RES   0.0000
2487 O  41.6900  55.7420   0.4860 O 1 RES   0.0000
2488 Si  41.6900  57.1170   0.9730 Si 1 RES   0.0000
2489 O  42.8810  53.6790   0.4860 O 1 RES   0.0000
2490 O  40.4990  53.6790   0.4860 O 1 RES   0.0000
2491 O  41.6900  57.1170   2.4310 O 1 RES   0.0000
2492 Si  41.6900  57.1170   3.8900 Si 1 RES   0.0000
2493 O  41.6900  55.7420   4.3770 O 1 RES   0.0000
2494 Si  41.6900  54.3660   4.8630 Si 1 RES   0.0000
2495 O  42.8810  53.6790   4.3770 O 1 RES   0.0000
2496 O  40.4990  53.6790   4.3770 O 1 RES   0.0000
2497 Si  41.6900  54.3660   7.7810 Si 1 RES   0.0000
2498 O  42.8810  53.6790   8.2670 O 1 RES   0.0000
2499 O  40.4990  53.6790   8.2670 O 1 RES   0.0000
2500 O  41.6900  55.7420   8.2670 O 1 RES   0.0000
2501 Si  41.6900  57.1170   8.7530 Si 1 RES   0.0000
2502 O  41.6900  57.1170  10.2120 O 1 RES   0.0000
2503 O  46.4550  54.3660   6.3220 O 1 RES   0.0000
2504 Si  46.4550  54.3660   0.0000 Si 1 RES   0.0000
2505 O  46.4550  55.7420   0.4860 O 1 RES   0.0000
2506 Si  46.4550  57.1170   0.9730 Si 1 RES   0.0000
2507 O  -0.0430  53.6790   0.4860 O 1 RES   0.0000
2508 O  45.2640  53.6790   0.4860 O 1 RES   0.0000
2509 O  46.4550  57.1170   2.4310 O 1 RES   0.0000
2510 Si  46.4550  57.1170   3.8900 Si 1 RES   0.0000
2511 O  46.4550  55.7420   4.3770 O 1 RES   0.0000
2512 Si  46.4550  54.3660   4.8630 Si 1 RES   0.0000
2513 O  -0.0430  53.6790   4.3770 O 1 RES   0.0000
2514 O  45.2640  53.6790   4.3770 O 1 RES   0.0000
2515 Si  46.4550  54.3660   7.7810 Si 1 RES   0.0000
2516 O  -0.0430  53.6790   8.2670 O 1 RES   0.0000
2517 O  45.2640  53.6790   8.2670 O 1 RES   0.0000
2518 O  46.4550  55.7420   8.2670 O 1 RES   0.0000
2519 Si  46.4550  57.1170   8.7530 Si 1 RES   0.0000
2520 O  46.4550  57.1170  10.2120 O 1 RES   0.0000
2521 O   1.1910  58.4930   6.3220 O 1 RES   0.0000
2522 Si   1.1910  58.4930   0.0000 Si 1 RES   0.0000
2523 O   1.1910  59.8680   0.4860 O 1 RES   0.0000
2524 Si   1.1910  61.2440   0.9730 Si 1 RES   0.0000
2525 O   2.3820  57.8050   0.4860 O 1 RES   0.0000
2526 O   0.0000  57.8050   0.4860 O 1 RES   0.0000
2527 O   1.1910  61.2440   2.4310 O 1 RES   0.0000
2528 Si   1.1910  61.2440   3.8900 Si 1 RES   0.0000
2529 O   1.1910  59.8680   4.3770 O 1 RES   0.0000
2530 Si   1.1910  58.4930   4.8630 Si 1 RES   0.0000
2531 O   2.3820  57.8050   4.3770 O 1 RES   0.0000
2532 O   0.0000  57.8050   4.3770 O 1 RES   0.0000
2533 Si   1.1910  58.4930   7.7810 Si 1 RES   0.0000
2534 O   2.3820  57.8050   8.2670 O 1 RES   0.0000
2535 O   0.0000  57.8050   8.2670 O 1 RES   0.0000
2536 O   1.1910  59.8680   8.2670 O 1 RES   0.0000
2537 Si   1.1910  61.2440   8.7530 Si 1 RES   0.0000
2538 O   1.1910  61.2440  10.2120 O 1 RES   0.0000
2539 O   5.9560  58.4930   6.3220 O 1 RES   0.0000
2540 Si   5.9560  58.4930   0.0000 Si 1 RES   0.0000
2541 O   5.9560  59.8680   0.4860 O 1 RES   0.0000
2542 Si   5.9560  61.2440   0.9730 Si 1 RES   0.0000
2543 O   7.1470  57.8050   0.4860 O 1 RES   0.0000
2544 O   4.7650  57.8050   0.4860 O 1 RES   0.0000
2545 O   5.9560  61.2440   2.4310 O 1 RES   0.0000
2546 Si   5.9560  61.2440   3.8900 Si 1 RES   0.0000
2547 O   5.9560  59.8680   4.3770 O 1 RES   0.0000
2548 Si   5.9560  58.4930   4.8630 Si 1 RES   0.0000
2549 O   7.1470  57.8050   4.3770 O 1 RES   0.0000
2550 O   4.7650  57.8050   4.3770 O 1 RES   0.0000
2551 Si   5.9560  58.4930   7.7810 Si 1 RES   0.0000
2552 O   7.1470  57.8050   8.2670 O 1 RES   0.0000
2553 O   4.7650  57.8050   8.2670 O 1 RES   0.0000
2554 O   5.9560  59.8680   8.2670 O 1 RES   0.0000
2555 Si   5.9560  61.2440   8.7530 Si 1 RES   0.0000
2556 O   5.9560  61.2440  10.2120 O 1 RES   0.0000
2557 O   3.5730  62.6190   6.3220 O 1 RES   0.0000
2558 Si   3.5730  62.6190   0.0000 Si 1 RES   0.0000
2559 O   3.5730  63.9940   0.4860 O 1 RES   0.0000
2560 Si   3.5730  65.3700   0.9730 Si 1 RES   0.0000
2561 O   4.7650  61.9310   0.4860 O 1 RES   0.0000
2562 O   2.3820  61.9310   0.4860 O 1 RES   0.0000
2563 O   3.5730  65.3700   2.4310 O 1 RES   0.0000
2564 Si   3.5730  65.3700   3.8900 Si 1 RES   0.0000
2565 O   3.5730  63.9940   4.3770 O 1 RES   0.0000
2566 Si   3.5730  62.6190   4.8630 Si 1 RES   0.0000
2567 O   4.7650  61.9310   4.3770 O 1 RES   0.0000
2568 O   2.3820  61.9310   4.3770 O 1 RES   0.0000
2569 Si   3.5730  62.6190   7.7810 Si 1 RES   0.0000
2570 O   4.7650  61.9310   8.2670 O 1 RES   0.0000
2571 O   2.3820  61.9310   8.2670 O 1 RES   0.0000
2572 O   3.5730  63.9940   8.2670 O 1 RES   0.0000
2573 Si   3.5730  65.3700   8.7530 Si 1 RES   0.0000
2574 O   3.5730  65.3700  10.2120 O 1 RES   0.0000
2575 O   8.3380  62.6190   6.3220 O 1 RES   0.0000
2576 Si   8.3380  62.6190   0.0000 Si 1 RES   0.0000
2577 O   8.3380  63.9940   0.4860 O 1 RES   0.0000
2578 Si   8.3380  65.3700   0.9730 Si 1 RES   0.0000
2579 O   9.5290  61.9310   0.4860 O 1 RES   0.0000
2580 O   7.1470  61.9310   0.4860 O 1 RES   0.0000
2581 O   8.3380  65.3700   2.4310 O 1 RES   0.0000
2582 Si   8.3380  65.3700   3.8900 Si 1 RES   0.0000
2583 O   8.3380  63.9940   4.3770 O 1 RES   0.0000
2584 Si   8.3380  62.6190   4.8630 Si 1 RES   0.0000
2585 O   9.5290  61.9310   4.3770 O 1 RES   0.0000
2586 O   7.1470  61.9310   4.3770 O 1 RES   0.0000
2587 Si   8.3380  62.6190   7.7810 Si 1 RES   0.0000
2588 O   9.5290  61.9310   8.2670 O 1 RES   0.0000
2589 O   7.1470  61.9310   8.2670 O 1 RES   0.0000
2590 O   8.3380  63.9940   8.2670 O 1 RES   0.0000
2591 Si   8.3380  65.3700   8.7530 Si 1 RES   0.0000
2592 O   8.3380  65.3700  10.2120 O 1 RES   0.0000
2593 O  10.7200  58.4930   6.3220 O 1 RES   0.0000
2594 Si  10.7200  58.4930   0.0000 Si 1 RES   0.0000
2595 O  10.7200  59.8680   0.4860 O 1 RES   0.0000
2596 Si  10.7200  61.2440   0.9730 Si 1 RES   0.0000
2597 O  11.9120  57.8050   0.4860 O 1 RES   0.0000
2598 O   9.5290  57.8050   0.4860 O 1 RES   0.0000
2599 O  10.7200  61.2440   2.4310 O 1 RES   0.0000
2600 Si  10.7200  61.2440   3.8900 Si 1 RES   0.0000
2601 O  10.7200  59.8680   4.3770 O 1 RES   0.0000
2602 Si  10.7200  58.4930   4.8630 Si 1 RES   0.0000
2603 O  11.9120  57.8050   4.3770 O 1 RES   0.0000
2604 O   9.5290  57.8050   4.3770 O 1 RES   0.0000
2605 Si  10.7200  58.4930   7.7810 Si 1 RES   0.0000
2606 O  11.9120  57.8050   8.2670 O 1 RES   0.0000
2607 O   9.5290  57.8050   8.2670 O 1 RES   0.0000
2608 O  10.7200  59.8680   8.2670 O 1 RES   0.0000
2609 Si  10.7200  61.2440   8.7530 Si 1 RES   0.0000
2610 O  10.7200  61.2440  10.2120 O 1 RES   0.0000
2611 O  15.4850  58.4930   6.3220 O 1 RES   0.0000
2612 Si  15.4850  58.4930   0.0000 Si 1 RES   0.0000
2613 O  15.4850  59.8680   0.4860 O 1 RES   0.0000
2614 Si  15.4850  61.2440   0.9730 Si 1 RES   0.0000
2615 O  16.6760  57.8050   0.4860 O 1 RES   0.0000
2616 O  14.2940  57.8050   0.4860 O 1 RES   0.0000
2617 O  15.4850  61.2440   2.4310 O 1 RES   0.0000
2618 Si  15.4850  61.2440   3.8900 Si 1 RES   0.0000
2619 O  15.4850  59.8680   4.3770 O 1 RES   0.0000
2620 Si  15.4850  58.4930   4.8630 Si 1 RES   0.0000
2621 O  16.6760  57.8050   4.3770 O 1 RES   0.0000
2622 O  14.2940  57.8050   4.3770 O 1 RES   0.0000
2623 Si  15.4850  58.4930   7.7810 Si 1 RES   0.0000
2624 O  16.6760  57.8050   8.2670 O 1 RES   0.0000
2625 O  14.2940  57.8050   8.2670 O 1 RES   0.0000
2626 O  15.4850  59.8680   8.2670 O 1 RES   0.0000
2627 Si  15.4850  61.2440   8.7530 Si 1 RES   0.0000
2628 O  15.4850  61.2440  10.2120 O 1 RES   0.0000
2629 O  13.1030  62.6190   6.3220 O 1 RES   0.0000
2630 Si  13.1030  62.6190   0.0000 Si 1 RES   0.0000
2631 O  13.1030  63.9940   0.4860 O 1 RES   0.0000
2632 Si  13.1030  65.3700   0.9730 Si 1 RES   0.0000
2633 O  14.2940  61.9310   0.4860 O 1 RES   0.0000
2634 O  11.9120  61.9310   0.4860 O 1 RES   0.0000
2635 O  13.1030  65.3700   2.4310 O 1 RES   0.0000
2636 Si  13.1030  65.3700   3.8900 Si 1 RES   0.0000
2637 O  13.1030  63.9940   4.3770 O 1 RES   0.0000
2638 Si  13.1030  62.6190   4.8630 Si 1 RES   0.0000
2639 O  14.2940  61.9310   4.3770 O 1 RES   0.0000
2640 O  11.9120  61.9310   4.3770 O 1 RES   0.0000
2641 Si  13.1030  62.6190   7.7810 Si 1 RES   0.0000
2642 O  14.2940  61.9310   8.2670 O 1 RES   0.0000
2643 O  11.9120  61.9310   8.2670 O 1 RES   0.0000
2644 O  13.1030  63.9940   8.2670 O 1 RES   0.0000
2645 Si  13.1030  65.3700   8.7530 Si 1 RES   0.0000
2646 O  13.1030  65.3700  10.2120 O 1 RES   0.0000
2647 O  17.8670  62.6190   6.3220 O 1 RES   0.0000
2648 Si  17.8670  62.6190   0.0000 Si 1 RES   0.0000
2649 O  17.8670  63.9940   0.4860 O 1 RES   0.0000
2650 Si  17.8670  65.3700   0.9730 Si 1 RES   0.0000
2651 O  19.0580  61.9310   0.4860 O 1 RES   0.0000
2652 O  16.6760  61.9310   0.4860 O 1 RES   0.0000
2653 O  17.8670  65.3700   2.4310 O 1 RES   0.0000
2654 Si  17.8670  65.3700   3.8900 Si 1 RES   0.0000
2655 O  17.8670  63.9940   4.3770 O 1 RES   0.0000
2656 Si  17.8670  62.6190   4.8630 Si 1 RES   0.0000
2657 O  19.0580  61.9310   4.3770 O 1 RES   0.0000
2658 O  16.6760  61.9310   4.3770 O 1 RES   0.0000
2659 Si  17.8670  62.6190   7.7810 Si 1 RES   0.0000
2660 O  19.0580  61.9310   8.2670 O 1 RES   0.0000
2661 O  16.6760  61.9310   8.2670 O 1 RES   0.0000
2662 O  17.8670  63.9940   8.2670 O 1 RES   0.0000
2663 Si  17.8670  65.3700   8.7530 Si 1 RES   0.0000
2664 O  17.8670  65.3700  10.2120 O 1 RES   0.0000
2665 O  20.2500  58.4930   6.3220 O 1 RES   0.0000
2666 Si  20.2500  58.4930   0.0000 Si 1 RES   0.0000
2667 O  20.2500  59.8680   0.4860 O 1 RES   0.0000
2668 Si  20.2500  61.2440   0.9730 Si 1 RES   0.0000
2669 O  21.4410  57.8050   0.4860 O 1 RES   0.0000
2670 O  19.0580  57.8050   0.4860 O 1 RES   0.0000
2671 O  20.2500  61.2440   2.4310 O 1 RES   0.0000
2672 Si  20.2500  61.2440   3.8900 Si 1 RES   0.0000
2673 O  20.2500  59.8680   4.3770 O 1 RES   0.0000
2674 Si  20.2500  58.4930   4.8630 Si 1 RES   0.0000
2675 O  21.4410  57.8050   4.3770 O 1 RES   0.0000
2676 O  19.0580  57.8050   4.3770 O 1 RES   0.0000
2677 Si  20.2500  58.4930   7.7810 Si 1 RES   0.0000
2678 O  21.4410  57.8050   8.2670 O 1 RES   0.0000
2679 O  19.0580  57.8050   8.2670 O 1 RES   0.0000
2680 O  20.2500  59.8680   8.2670 O 1 RES   0.0000
2681 Si  20.2500  61.2440   8.7530 Si 1 RES   0.0000
2682 O  20.2500  61.2440  10.2120 O 1 RES   0.0000
2683 O  25.0140  58.4930   6.3220 O 1 RES   0.0000
2684 Si  25.0140  58.4930   0.0000 Si 1 RES   0.0000
2685 O  25.0140  59.8680   0.4860 O 1 RES   0.0000
2686 Si  25.0140  61.2440   0.9730 Si 1 RES   0.0000
2687 O  26.2050  57.8050   0.4860 O 1 RES   0.0000
2688 O  23.8230  57.8050   0.4860 O 1 RES   0.0000
2689 O  25.0140  61.2440   2.4310 O 1 RES   0.0000
2690 Si  25.0140  61.2440   3.8900 Si 1 RES   0.0000
2691 O  25.0140  59.8680   4.3770 O 1 RES   0.0000
2692 Si  25.0140  58.4930   4.8630 Si 1 RES   0.0000
2693 O  26.2050  57.8050   4.3770 O 1 RES   0.0000
2694 O  23.8230  57.8050   4.3770 O 1 RES   0.0000
2695 Si  25.0140  58.4930   7.7810 Si 1 RES   0.0000
2696 O  26.2050  57.8050   8.2670 O 1 RES   0.0000
2697 O  23.8230  57.8050   8.2670 O 1 RES   0.0000
2698 O  25.0140  59.8680   8.2670 O 1 RES   0.0000
2699 Si  25.0140  61.2440   8.7530 Si 1 RES   0.0000
2700 O  25.0140  61.2440  10.2120 O 1 RES   0.0000
2701 O  22.6320  62.6190   6.3220 O 1 RES   0.0000
2702 Si  22.6320  62.6190   0.0000 Si 1 RES   0.0000
2703 O  22.6320  63.9940   0.4860 O 1 RES   0.0000
2704 Si  22.6320  65.3700   0.9730 Si 1 RES   0.0000
2705 O  23.8230  61.9310   0.4860 O 1 RES   0.0000
2706 O  21.4410  61.9310   0.4860 O 1 RES   0.0000
2707 O  22.6320  65.3700   2.4310 O 1 RES   0.0000
2708 Si  22.6320  65.3700   3.8900 Si 1 RES   0.0000
2709 O  22.6320  63.9940   4.3770 O 1 RES   0.0000
2710 Si  22.6320  62.6190   4.8630 Si 1 RES   0.0000
2711 O  23.8230  61.9310   4.3770 O 1 RES   0.0000
2712 O  21.4410  61.9310   4.3770 O 1 RES   0.0000
2713 Si  22.6320  62.6190   7.7810 Si 1 RES   0.0000
2714 O  23.8230  61.9310   8.2670 O 1 RES   0.0000
2715 O  21.4410  61.9310   8.2670 O 1 RES   0.0000
2716 O  22.6320  63.9940   8.2670 O 1 RES   0.0000
2717 Si  22.6320  65.3700   8.7530 Si 1 RES   0.0000
2718 O  22.6320  65.3700  10.2120 O 1 RES   0.0000
2719 O  27.3960  62.6190   6.3220 O 1 RES   0.0000
2720 Si  27.3960  62.6190   0.0000 Si 1 RES   0.0000
2721 O  27.3960  63.9940   0.4860 O 1 RES   0.0000
2722 Si  27.3960  65.3700   0.9730 Si 1 RES   0.0000
2723 O  28.5870  61.9310   0.4860 O 1 RES   0.0000
2724 O  26.2050  61.9310   0.4860 O 1 RES   0.0000
2725 O  27.3960  65.3700   2.4310 O 1 RES   0.0000
2726 Si  27.3960  65.3700   3.8900 Si 1 RES   0.0000
2727 O  27.3960  63.9940   4.3770 O 1 RES   0.0000
2728 Si  27.3960  62.6190   4.8630 Si 1 RES   0.0000
2729 O  28.5870  61.9310   4.3770 O 1 RES   0.0000
2730 O  26.2050  61.9310   4.3770 O 1 RES   0.0000
2731 Si  27.3960  62.6190   7.7810 Si 1 RES   0.0000
2732 O  28.5870  61.9310   8.2670 O 1 RES   0.0000
2733 O  26.2050  61.9310   8.2670 O 1 RES   0.0000
2734 O  27.3960  63.9940   8.2670 O 1 RES   0.0000
2735 Si  27.3960  65.3700   8.7530 Si 1 RES   0.0000
2736 O  27.3960  65.3700  10.2120 O 1 RES   0.0000
2737 O  29.7790  58.4930   6.3220 O 1 RES   0.0000
2738 Si  29.7790  58.4930   0.0000 Si 1 RES   0.0000
2739 O  29.7790  59.8680   0.4860 O 1 RES   0.0000
2740 Si  29.7790  61.2440   0.9730 Si 1 RES   0.0000
2741 O  30.9700  57.8050   0.4860 O 1 RES   0.0000
2742 O  28.5870  57.8050   0.4860 O 1 RES   0.0000
2743 O  29.7790  61.2440   2.4310 O 1 RES   0.0000
2744 Si  29.7790  61.2440   3.8900 Si 1 RES   0.0000
2745 O  29.7790  59.8680   4.3770 O 1 RES   0.0000
2746 Si  29.7790  58.4930   4.8630 Si 1 RES   0.0000
2747 O  30.9700  57.8050   4.3770 O 1 RES   0.0000
2748 O  28.5870  57.8050   4.3770 O 1 RES   0.0000
2749 Si  29.7790  58.4930   7.7810 Si 1 RES   0.0000
2750 O  30.9700  57.8050   8.2670 O 1 RES   0.0000
2751 O  28.5870  57.8050   8.2670 O 1 RES   0.0000
2752 O  29.7790  59.8680   8.2670 O 1 RES   0.0000
2753 Si  29.7790  61.2440   8.7530 Si 1 RES   0.0000
2754 O  29.7790  61.2440  10.2120 O 1 RES   0.0000
2755 O  34.5430  58.4930   6.3220 O 1 RES   0.0000
2756 Si  34.5430  58.4930   0.0000 Si 1 RES   0.0000
2757 O  34.5430  59.8680   0.4860 O 1 RES   0.0000
2758 Si  34.5430  61.2440   0.9730 Si 1 RES   0.0000
2759 O  35.7340  57.8050   0.4860 O 1 RES   0.0000
2760 O  33.3520  57.8050   0.4860 O 1 RES   0.0000
2761 O  34.5430  61.2440   2.4310 O 1 RES   0.0000
2762 Si  34.5430  61.2440   3.8900 Si 1 RES   0.0000
2763 O  34.5430  59.8680   4.3770 O 1 RES   0.0000
2764 Si  34.5430  58.4930   4.8630 Si 1 RES   0.0000
2765 O  35.7340  57.8050   4.3770 O 1 RES   0.0000
2766 O  33.3520  57.8050   4.3770 O 1 RES   0.0000
2767 Si  34.5430  58.4930   7.7810 Si 1 RES   0.0000
2768 O  35.7340  57.8050   8.2670 O 1 RES   0.0000
2769 O  33.3520  57.8050   8.2670 O 1 RES   0.0000
2770 O  34.5430  59.8680   8.2670 O 1 RES   0.0000
2771 Si  34.5430  61.2440   8.7530 Si 1 RES   0.0000
2772 O  34.5430  61.2440  10.2120 O 1 RES   0.0000
2773 O  32.1610  62.6190   6.3220 O 1 RES   0.0000
2774 Si  32.1610  62.6190   0.0000 Si 1 RES   0.0000
2775 O  32.1610  63.9940   0.4860 O 1 RES   0.0000
2776 Si  32.1610  65.3700   0.9730 Si 1 RES   0.0000
2777 O  33.3520  61.9310   0.4860 O 1 RES   0.0000
2778 O  30.9700  61.9310   0.4860 O 1 RES   0.0000
2779 O  32.1610  65.3700   2.4310 O 1 RES   0.0000
2780 Si  32.1610  65.3700   3.8900 Si 1 RES   0.0000
2781 O  32.1610  63.9940   4.3770 O 1 RES   0.0000
2782 Si  32.1610  62.6190   4.8630 Si 1 RES   0.0000
2783 O  33.3520  61.9310   4.3770 O 1 RES   0.0000
2784 O  30.9700  61.9310   4.3770 O 1 RES   0.0000
2785 Si  32.1610  62.6190   7.7810 Si 1 RES   0.0000
2786 O  33.3520  61.9310   8.2670 O 1 RES   0.0000
2787 O  30.9700  61.9310   8.2670 O 1 RES   0.0000
2788 O  32.1610  63.9940   8.2670 O 1 RES   0.0000
2789 Si  32.1610  65.3700   8.7530 Si 1 RES   0.0000
2790 O  32.1610  65.3700  10.2120 O 1 RES   0.0000
2791 O  36.9250  62.6190   6.3220 O 1 RES   0.0000
2792 Si  36.9250  62.6190   0.0000 Si 1 RES   0.0000
2793 O  36.9250  63.9940   0.4860 O 1 RES   0.0000
2794 Si  36.9250  65.3700   0.9730 Si 1 RES   0.0000
2795 O  38.1170  61.9310   0.4860 O 1 RES   0.0000
2796 O  35.7340  61.9310   0.4860 O 1 RES   0.0000
2797 O  36.9250  65.3700   2.4310 O 1 RES   0.0000
2798 Si  36.9250  65.3700   3.8900 Si 1 RES   0.0000
2799 O  36.9250  63.9940   4.3770 O 1 RES   0.0000
2800 Si  36.9250  62.6190   4.8630 Si 1 RES   0.0000
2801 O  38.1170  61.9310   4.3770 O 1 RES   0.0000
2802 O  35.7340  61.9310   4.3770 O 1 RES   0.0000
2803 Si  36.9250  62.6190   7.7810 Si 1 RES   0.0000
2804 O  38.1170  61.9310   8.2670 O 1 RES   0.0000
2805 O  35.7340  61.9310   8.2670 O 1 RES   0.0000
2806 O  36.9250  63.9940   8.2670 O 1 RES   0.0000
2807 Si  36.9250  65.3700   8.7530 Si 1 RES   0.0000
2808 O  36.9250  65.3700  10.2120 O 1 RES   0.0000
2809 O  39.3080  58.4930   6.3220 O 1 RES   0.0000
2810 Si  39.3080  58.4930   0.0000 Si 1 RES   0.0000
2811 O  39.3080  59.8680   0.4860 O 1 RES   0.0000
2812 Si  39.3080  61.2440   0.9730 Si 1 RES   0.0000
2813 O  40.4990  57.8050   0.4860 O 1 RES   0.0000
2814 O  38.1170  57.8050   0.4860 O 1 RES   0.0000
2815 O  39.3080  61.2440   2.4310 O 1 RES   0.0000
2816 Si  39.3080  61.2440   3.8900 Si 1 RES   0.0000
2817 O  39.3080  59.8680   4.3770 O 1 RES   0.0000
2818 Si  39.3080  58.4930   4.8630 Si 1 RES   0.0000
2819 O  40.4990  57.8050   4.3770 O 1 RES   0.0000
2820 O  38.1170  57.8050   4.3770 O 1 RES   0.0000
2821 Si  39.3080  58.4930   7.7810 Si 1 RES   0.0000
2822 O  40.4990  57.8050   8.2670 O 1 RES   0.0000
2823 O  38.1170  57.8050   8.2670 O 1 RES   0.0000
2824 O  39.3080  59.8680   8.2670 O 1 RES   0.0000
2825 Si  39.3080  61.2440   8.7530 Si 1 RES   0.0000
2826 O  39.3080  61.2440  10.2120 O 1 RES   0.0000
2827 O  44.0720  58.4930   6.3220 O 1 RES   0.0000
2828 Si  44.0720  58.4930   0.0000 Si 1 RES   0.0000
2829 O  44.0720  59.8680   0.4860 O 1 RES   0.0000
2830 Si  44.0720  61.2440   0.9730 Si 1 RES   0.0000
2831 O  45.2640  57.8050   0.4860 O 1 RES   0.0000
2832 O  42.8810  57.8050   0.4860 O 1 RES   0.0000
2833 O  44.0720  61.2440   2.4310 O 1 RES   0.0000
2834 Si  44.0720  61.2440   3.8900 Si 1 RES   0.0000
2835 O  44.0720  59.8680   4.3770 O 1 RES   0.0000
2836 Si  44.0720  58.4930   4.8630 Si 1 RES   0.0000
2837 O  45.2640  57.8050   4.3770 O 1 RES   0.0000
2838 O  42.8810  57.8050   4.3770 O 1 RES   0.0000
2839 Si  44.0720  58.4930   7.7810 Si 1 RES   0.0000
2840 O  45.2640  57.8050   8.2670 O 1 RES   0.0000
2841 O  42.8810  57.8050   8.2670 O 1 RES   0.0000
2842 O  44.0720  59.8680   8.2670 O 1 RES   0.0000
2843 Si  44.0720  61.2440   8.7530 Si 1 RES   0.0000
2844 O  44.0720  61.2440  10.2120 O 1 RES   0.0000
2845 O  41.6900  62.6190   6.3220 O 1 RES   0.0000
2846 Si  41.6900  62.6190   0.0000 Si 1 RES   0.0000
2847 O  41.6900  63.9940   0.4860 O 1 RES   0.0000
2848 Si  41.6900  65.3700   0.9730 Si 1 RES   0.0000
2849 O  42.8810  61.9310   0.4860 O 1 RES   0.0000
2850 O  40.4990  61.9310   0.4860 O 1 RES   0.0000
2851 O  41.6900  65.3700   2.4310 O 1 RES   0.0000
2852 Si  41.6900  65.3700   3.8900 Si 1 RES   0.0000
2853 O  41.6900  63.9940   4.3770 O 1 RES   0.0000
2854 Si  41.6900  62.6190   4.8630 Si 1 RES   0.0000
2855 O  42.8810  61.9310   4.3770 O 1 RES   0.0000
2856 O  40.4990  61.9310   4.3770 O 1 RES   0.0000
2857 Si  41.6900  62.6190   7.7810 Si 1 RES   0.0000
2858 O  42.8810  61.9310   8.2670 O 1 RES   0.0000
2859 O  40.4990  61.9310   8.2670 O 1 RES   0.0000
2860 O  41.6900  63.9940   8.2670 O 1 RES   0.0000
2861 Si  41.6900  65.3700   8.7530 Si 1 RES   0.0000
2862 O  41.6900  65.3700  10.2120 O 1 RES   0.0000
2863 O  46.4550  62.6190   6.3220 O 1 RES   0.0000
2864 Si  46.4550  62.6190   0.0000 Si 1 RES   0.0000
2865 O  46.4550  63.9940   0.4860 O 1 RES   0.0000
2866 Si  46.4550  65.3700   0.9730 Si 1 RES   0.0000
2867 O  -0.0430  61.9310   0.4860 O 1 RES   0.0000
2868 O  45.2640  61.9310   0.4860 O 1 RES   0.0000
2869 O  46.4550  65.3700   2.4310 O 1 RES   0.0000
2870 Si  46.4550  65.3700   3.8900 Si 1 RES   0.0000
2871 O  46.4550  63.9940   4.3770 O 1 RES   0.0000
2872 Si  46.4550  62.6190   4.8630 Si 1 RES   0.0000
2873 O  -0.0430  61.9310   4.3770 O 1 RES   0.0000
2874 O  45.2640  61.9310   4.3770 O 1 RES   0.0000
2875 Si  46.4550  62.6190   7.7810 Si 1 RES   0.0000
2876 O  -0.0430  61.9310   8.2670 O 1 RES   0.0000
2877 O  45.2640  61.9310   8.2670 O 1 RES   0.0000
2878 O  46.4550  63.9940   8.2670 O 1 RES   0.0000
2879 Si  46.4550  65.3700   8.7530 Si 1 RES   0.0000
2880 O  46.4550  65.3700  10.2120 O 1 RES   0.0000
2881 O   1.1910  66.7450   6.3220 O 1 RES   0.0000
2882 Si   1.1910  66.7450   0.0000 Si 1 RES   0.0000
2883 O   1.1910  68.1210   0.4860 O 1 RES   0.0000
2884 Si   1.1910  69.4960   0.9730 Si 1 RES   0.0000
2885 O   2.3820  66.0580   0.4860 O 1 RES   0.0000
2886 O   0.0000  66.0580   0.4860 O 1 RES   0.0000
2887 O   1.1910  69.4960   2.4310 O 1 RES   0.0000
2888 Si   1.1910  69.4960   3.8900 Si 1 RES   0.0000
2889 O   1.1910  68.1210   4.3770 O 1 RES   0.0000
2890 Si   1.1910  66.7450   4.8630 Si 1 RES   0.0000
2891 O   2.3820  66.0580   4.3770 O 1 RES   0.0000
2892 O   0.0000  66.0580   4.3770 O 1 RES   0.0000
2893 Si   1.1910  66.7450   7.7810 Si 1 RES   0.0000
2894 O   2.3820  66.0580   8.2670 O 1 RES   0.0000
2895 O   0.0000  66.0580   8.2670 O 1 RES   0.0000
2896 O   1.1910  68.1210   8.2670 O 1 RES   0.0000
2897 Si   1.1910  69.4960   8.7530 Si 1 RES   0.0000
2898 O   1.1910  69.4960  10.2120 O 1 RES   0.0000
2899 O   5.9560  66.7450   6.3220 O 1 RES   0.0000
2900 Si   5.9560  66.7450   0.0000 Si 1 RES   0.0000
2901 O   5.9560  68.1210   0.4860 O 1 RES   0.0000
2902 Si   5.9560  69.4960   0.9730 Si 1 RES   0.0000
2903 O   7.1470  66.0580   0.4860 O 1 RES   0.0000
2904 O   4.7650  66.0580   0.4860 O 1 RES   0.0000
2905 O   5.9560  69.4960   2.4310 O 1 RES   0.0000
2906 Si   5.9560  69.4960   3.8900 Si 1 RES   0.0000
2907 O   5.9560  68.1210   4.3770 O 1 RES   0.0000
2908 Si   5.9560  66.7450   4.8630 Si 1 RES   0.0000
2909 O   7.1470  66.0580   4.3770 O 1 RES   0.0000
2910 O   4.7650  66.0580   4.3770 O 1 RES   0.0000
2911 Si   5.9560  66.7450   7.7810 Si 1 RES   0.0000
2912 O   7.1470  66.0580   8.2670 O 1 RES   0.0000
2913 O   4.7650  66.0580   8.2670 O 1 RES   0.0000
2914 O   5.9560  68.1210   8.2670 O 1 RES   0.0000
2915 Si   5.9560  69.4960   8.7530 Si 1 RES   0.0000
2916 O   5.9560  69.4960  10.2120 O 1 RES   0.0000
2917 O   3.5730  70.8720   6.3220 O 1 RES   0.0000
2918 Si   3.5730  70.8720   0.0000 Si 1 RES   0.0000
2919 O   3.5730  72.2470   0.4860 O 1 RES   0.0000
2920 Si   3.5730  73.6220   0.9730 Si 1 RES   0.0000
2921 O   4.7650  70.1840   0.4860 O 1 RES   0.0000
2922 O   2.3820  70.1840   0.4860 O 1 RES   0.0000
2923 O   3.5730  73.6220   2.4310 O 1 RES   0.0000
2924 Si   3.5730  73.6220   3.8900 Si 1 RES   0.0000
2925 O   3.5730  72.2470   4.3770 O 1 RES   0.0000
2926 Si   3.5730  70.8720   4.8630 Si 1 RES   0.0000
2927 O   4.7650  70.1840   4.3770 O 1 RES   0.0000
2928 O   2.3820  70.1840   4.3770 O 1 RES   0.0000
2929 Si   3.5730  70.8720   7.7810 Si 1 RES   0.0000
2930 O   4.7650  70.1840   8.2670 O 1 RES   0.0000
2931 O   2.3820  70.1840   8.2670 O 1 RES   0.0000
2932 O   3.5730  72.2470   8.2670 O 1 RES   0.0000
2933 Si   3.5730  73.6220   8.7530 Si 1 RES   0.0000
2934 O   3.5730  73.6220  10.2120 O 1 RES   0.0000
2935 O   8.3380  70.8720   6.3220 O 1 RES   0.0000
2936 Si   8.3380  70.8720   0.0000 Si 1 RES   0.0000
2937 O   8.3380  72.2470   0.4860 O 1 RES   0.0000
2938 Si   8.3380  73.6220   0.9730 Si 1 RES   0.0000
2939 O   9.5290  70.1840   0.4860 O 1 RES   0.0000
2940 O   7.1470  70.1840   0.4860 O 1 RES   0.0000
2941 O   8.3380  73.6220   2.4310 O 1 RES   0.0000
2942 Si   8.3380  73.6220   3.8900 Si 1 RES   0.0000
2943 O   8.3380  72.2470   4.3770 O 1 RES   0.0000
2944 Si   8.3380  70.8720   4.8630 Si 1 RES   0.0000
2945 O   9.5290  70.1840   4.3770 O 1 RES   0.0000
2946 O   7.1470  70.1840   4.3770 O 1 RES   0.0000
2947 Si   8.3380  70.8720   7.7810 Si 1 RES   0.0000
2948 O   9.5290  70.1840   8.2670 O 1 RES   0.0000
2949 O   7.1470  70.1840   8.2670 O 1 RES   0.0000
2950 O   8.3380  72.2470   8.2670 O 1 RES   0.0000
2951 Si   8.3380  73.6220   8.7530 Si 1 RES   0.0000
2952 O   8.3380  73.6220  10.2120 O 1 RES   0.0000
2953 O  10.7200  66.7450   6.3220 O 1 RES   0.0000
2954 Si  10.7200  66.7450   0.0000 Si 1 RES   0.0000
2955 O  10.7200  68.1210   0.4860 O 1 RES   0.0000
2956 Si  10.7200  69.4960   0.9730 Si 1 RES   0.0000
2957 O  11.9120  66.0580   0.4860 O 1 RES   0.0000
2958 O   9.5290  66.0580   0.4860 O 1 RES   0.0000
2959 O  10.7200  69.4960   2.4310 O 1 RES   0.0000
2960 Si  10.7200  69.4960   3.8900 Si 1 RES   0.0000
2961 O  10.7200  68.1210   4.3770 O 1 RES   0.0000
2962 Si  10.7200  66.7450   4.8630 Si 1 RES   0.0000
2963 O  11.9120  66.0580   4.3770 O 1 RES   0.0000
2964 O   9.5290  66.0580   4.3770 O 1 RES   0.0000
2965 Si  10.7200  66.7450   7.7810 Si 1 RES   0.0000
2966 O  11.9120  66.0580   8.2670 O 1 RES   0.0000
2967 O   9.5290  66.0580   8.2670 O 1 RES   0.0000
2968 O  10.7200  68.1210   8.2670 O 1 RES   0.0000
2969 Si  10.7200  69.4960   8.7530 Si 1 RES   0.0000
2970 O  10.7200  69.4960  10.2120 O 1 RES   0.0000
2971 O  15.4850  66.7450   6.3220 O 1 RES   0.0000
2972 Si  15.4850  66.7450   0.0000 Si 1 RES   0.0000
2973 O  15.4850  68.1210   0.4860 O 1 RES   0.0000
2974 Si  15.4850  69.4960   0.9730 Si 1 RES   0.0000
2975 O  16.6760  66.0580   0.4860 O 1 RES   0.0000
2976 O  14.2940  66.0580   0.4860 O 1 RES   0.0000
2977 O  15.4850  69.4960   2.4310 O 1 RES   0.0000
2978 Si  15.4850  69.4960   3.8900 Si 1 RES   0.0000
2979 O  15.4850  68.1210   4.3770 O 1 RES   0.0000
2980 Si  15.4850  66.7450   4.8630 Si 1 RES   0.0000
2981 O  16.6760  66.0580   4.3770 O 1 RES   0.0000
2982 O  14.2940  66.0580   4.3770 O 1 RES   0.0000
2983 Si  15.4850  66.7450   7.7810 Si 1 RES   0.0000
2984 O  16.6760  66.0580   8.2670 O 1 RES   0.0000
2985 O  14.2940  66.0580   8.2670 O 1 RES   0.0000
2986 O  15.4850  68.1210   8.2670 O 1 RES   0.0000
2987 Si  15.4850  69.4960   8.7530 Si 1 RES   0.0000
2988 O  15.4850  69.4960  10.2120 O 1 RES   0.0000
2989 O  13.1030  70.8720   6.3220 O 1 RES   0.0000
2990 Si  13.1030  70.8720   0.0000 Si 1 RES   0.0000
2991 O  13.1030  72.2470   0.4860 O 1 RES   0.0000
2992 Si  13.1030  73.6220   0.9730 Si 1 RES   0.0000
2993 O  14.2940  70.1840   0.4860 O 1 RES   0.0000
2994 O  11.9120  70.1840   0.4860 O 1 RES   0.0000
2995 O  13.1030  73.6220   2.4310 O 1 RES   0.0000
2996 Si  13.1030  73.6220   3.8900 Si 1 RES   0.0000
2997 O  13.1030  72.2470   4.3770 O 1 RES   0.0000
2998 Si  13.1030  70.8720   4.8630 Si 1 RES   0.0000
2999 O  14.2940  70.1840   4.3770 O 1 RES   0.0000
3000 O  11.9120  70.1840   4.3770 O 1 RES   0.0000
3001 Si  13.1030  70.8720   7.7810 Si 1 RES   0.0000
3002 O  14.2940  70.1840   8.2670 O 1 RES   0.0000
3003 O  11.9120  70.1840   8.2670 O 1 RES   0.0000
3004 O  13.1030  72.2470   8.2670 O 1 RES   0.0000
3005 Si  13.1030  73.6220   8.7530 Si 1 RES   0.0000
3006 O  13.1030  73.6220  10.2120 O 1 RES   0.0000
3007 O  17.8670  70.8720   6.3220 O 1 RES   0.0000
3008 Si  17.8670  70.8720   0.0000 Si 1 RES   0.0000
3009 O  17.8670  72.2470   0.4860 O 1 RES   0.0000
3010 Si  17.8670  73.6220   0.9730 Si 1 RES   0.0000
3011 O  19.0580  70.1840   0.4860 O 1 RES   0.0000
3012 O  16.6760  70.1840   0.4860 O 1 RES   0.0000
3013 O  17.8670  73.6220   2.4310 O 1 RES   0.0000
3014 Si  17.8670  73.6220   3.8900 Si 1 RES   0.0000
3015 O  17.8670  72.2470   4.3770 O 1 RES   0.0000
3016 Si  17.8670  70.8720   4.8630 Si 1 RES   0.0000
3017 O  19.0580  70.1840   4.3770 O 1 RES   0.0000
3018 O  16.6760  70.1840   4.3770 O 1 RES   0.0000
3019 Si  17.8670  70.8720   7.7810 Si 1 RES   0.0000
3020 O  19.0580  70.1840   8.2670 O 1 RES   0.0000
3021 O  16.6760  70.1840   8.2670 O 1 RES   0.0000
3022 O  17.8670  72.2470   8.2670 O 1 RES   0.0000
3023 Si  17.8670  73.6220   8.7530 Si 1 RES   0.0000
3024 O  17.8670  73.6220  10.2120 O 1 RES   0.0000
3025 O  20.2500  66.7450   6.3220 O 1 RES   0.0000
3026 Si  20.2500  66.7450   0.0000 Si 1 RES   0.0000
3027 O  20.2500  68.1210   0.4860 O 1 RES   0.0000
3028 Si  20.2500  69.4960   0.9730 Si 1 RES   0.0000
3029 O  21.4410  66.0580   0.4860 O 1 RES   0.0000
3030 O  19.0580  66.0580   0.4860 O 1 RES   0.0000
3031 O  20.2500  69.4960   2.4310 O 1 RES   0.0000
3032 Si  20.2500  69.4960   3.8900 Si 1 RES   0.0000
3033 O  20.2500  68.1210   4.3770 O 1 RES   0.0000
3034 Si  20.2500  66.7450   4.8630 Si 1 RES   0.0000
3035 O  21.4410  66.0580   4.3770 O 1 RES   0.0000
3036 O  19.0580  66.0580   4.3770 O 1 RES   0.0000
3037 Si  20.2500  66.7450   7.7810 Si 1 RES   0.0000
3038 O  21.4410  66.0580   8.2670 O 1 RES   0.0000
3039 O  19.0580  66.0580   8.2670 O 1 RES   0.0000
3040 O  20.2500  68.1210   8.2670 O 1 RES   0.0000
3041 Si  20.2500  69.4960   8.7530 Si 1 RES   0.0000
3042 O  20.2500  69.4960  10.2120 O 1 RES   0.0000
3043 O  25.0140  66.7450   6.3220 O 1 RES   0.0000
3044 Si  25.0140  66.7450   0.0000 Si 1 RES   0.0000
3045 O  25.0140  68.1210   0.4860 O 1 RES   0.0000
3046 Si  25.0140  69.4960   0.9730 Si 1 RES   0.0000
3047 O  26.2050  66.0580   0.4860 O 1 RES   0.0000
3048 O  23.8230  66.0580   0.4860 O 1 RES   0.0000
3049 O  25.0140  69.4960   2.4310 O 1 RES   0.0000
3050 Si  25.0140  69.4960   3.8900 Si 1 RES   0.0000
3051 O  25.0140  68.1210   4.3770 O 1 RES   0.0000
3052 Si  25.0140  66.7450   4.8630 Si 1 RES   0.0000
3053 O  26.2050  66.0580   4.3770 O 1 RES   0.0000
3054 O  23.8230  66.0580   4.3770 O 1 RES   0.0000
3055 Si  25.0140  66.7450   7.7810 Si 1 RES   0.0000
3056 O  26.2050  66.0580   8.2670 O 1 RES   0.0000
3057 O  23.8230  66.0580   8.2670 O 1 RES   0.0000
3058 O  25.0140  68.1210   8.2670 O 1 RES   0.0000
3059 Si  25.0140  69.4960   8.7530 Si 1 RES   0.0000
3060 O  25.0140  69.4960  10.2120 O 1 RES   0.0000
3061 O  22.6320  70.8720   6.3220 O 1 RES   0.0000
3062 Si  22.6320  70.8720   0.0000 Si 1 RES   0.0000
3063 O  22.6320  72.2470   0.4860 O 1 RES   0.0000
3064 Si  22.6320  73.6220   0.9730 Si 1 RES   0.0000
3065 O  23.8230  70.1840   0.4860 O 1 RES   0.0000
3066 O  21.4410  70.1840   0.4860 O 1 RES   0.0000
3067 O  22.6320  73.6220   2.4310 O 1 RES   0.0000
3068 Si  22.6320  73.6220   3.8900 Si 1 RES   0.0000
3069 O  22.6320  72.2470   4.3770 O 1 RES   0.0000
3070 Si  22.6320  70.8720   4.8630 Si 1 RES   0.0000
3071 O  23.8230  70.1840   4.3770 O 1 RES   0.0000
3072 O  21.4410  70.1840   4.3770 O 1 RES   0.0000
3073 Si  22.6320  70.8720   7.7810 Si 1 RES   0.0000
3074 O  23.8230  70.1840   8.2670 O 1 RES   0.0000
3075 O  21.4410  70.1840   8.2670 O 1 RES   0.0000
3076 O  22.6320  72.2470   8.2670 O 1 RES   0.0000
3077 Si  22.6320  73.6220   8.7530 Si 1 RES   0.0000
3078 O  22.6320  73.6220  10.2120 O 1 RES   0.0000
3079 O  27.3960  70.8720   6.3220 O 1 RES   0.0000
3080 Si  27.3960  70.8720   0.0000 Si 1 RES   0.0000
3081 O  27.3960  72.2470   0.4860 O 1 RES   0.0000
3082 Si  27.3960  73.6220   0.9730 Si 1 RES   0.0000
3083 O  28.5870  70.1840   0.4860 O 1 RES   0.0000
3084 O  26.2050  70.1840   0.4860 O 1 RES   0.0000
3085 O  27.3960  73.6220   2.4310 O 1 RES   0.0000
3086 Si  27.3960  73.6220   3.8900 Si 1 RES   0.0000
3087 O  27.3960  72.2470   4.3770 O 1 RES   0.0000
3088 Si  27.3960  70.8720   4.8630 Si 1 RES   0.0000
3089 O  28.5870  70.1840   4.3770 O 1 RES   0.0000
3090 O  26.2050  70.1840   4.3770 O 1 RES   0.0000
3091 Si  27.3960  70.8720   7.7810 Si 1 RES   0.0000
3092 O  28.5870  70.1840   8.2670 O 1 RES   0.0000
3093 O  26.2050  70.1840   8.2670 O 1 RES   0.0000
3094 O  27.3960  72.2470   8.2670 O 1 RES   0.0000
3095 Si  27.3960  73.6220   8.7530 Si 1 RES   0.0000
3096 O  27.3960  73.6220  10.2120 O 1 RES   0.0000
3097 O  29.7790  66.7450   6.3220 O 1 RES   0.0000
3098 Si  29.7790  66.7450   0.0000 Si 1 RES   0.0000
3099 O  29.7790  68.1210   0.4860 O 1 RES   0.0000
3100 Si  29.7790  69.4960   0.9730 Si 1 RES   0.0000
3101 O  30.9700  66.0580   0.4860 O 1 RES   0.0000
3102 O  28.5870  66.0580   0.4860 O 1 RES   0.0000
3103 O  29.7790  69.4960   2.4310 O 1 RES   0.0000
3104 Si  29.7790  69.4960   3.8900 Si 1 RES   0.0000
3105 O  29.7790  68.1210   4.3770 O 1 RES   0.0000
3106 Si  29.7790  66.7450   4.8630 Si 1 RES   0.0000
3107 O  30.9700  66.0580   4.3770 O 1 RES   0.0000
3108 O  28.5870  66.0580   4.3770 O 1 RES   0.0000
3109 Si  29.7790  66.7450   7.7810 Si 1 RES   0.0000
3110 O  30.9700  66.0580   8.2670 O 1 RES   0.0000
3111 O  28.5870  66.0580   8.2670 O 1 RES   0.0000
3112 O  29.7790  68.1210   8.2670 O 1 RES   0.0000
3113 Si  29.7790  69.4960   8.7530 Si 1 RES   0.0000
3114 O  29.7790  69.4960  10.2120 O 1 RES   0.0000
3115 O  34.5430  66.7450   6.3220 O 1 RES   0.0000
3116 Si  34.5430  66.7450   0.0000 Si 1 RES   0.0000
3117 O  34.5430  68.1210   0.4860 O 1 RES   0.0000
3118 Si  34.5430  69.4960   0.9730 Si 1 RES   0.0000
3119 O  35.7340  66.0580   0.4860 O 1 RES   0.0000
3120 O  33.3520  66.0580   0.4860 O 1 RES   0.0000
3121 O  34.5430  69.4960   2.4310 O 1 RES   0.0000
3122 Si  34.5430  69.4960   3.8900 Si 1 RES   0.0000
3123 O  34.5430  68.1210   4.3770 O 1 RES   0.0000
3124 Si  34.5430  66.7450   4.8630 Si 1 RES   0.0000
3125 O  35.7340  66.0580   4.3770 O 1 RES   0.0000
3126 O  33.3520  66.0580   4.3770 O 1 RES   0.0000
3127 Si  34.5430  66.7450   7.7810 Si 1 RES   0.0000
3128 O  35.7340  66.0580   8.2670 O 1 RES   0.0000
3129 O  33.3520  66.0580   8.2670 O 1 RES   0.0000
3130 O  34.5430  68.1210   8.2670 O 1 RES   0.0000
3131 Si  34.5430  69.4960   8.7530 Si 1 RES   0.0000
3132 O  34.5430  69.4960  10.2120 O 1 RES   0.0000
3133 O  32.1610  70.8720   6.3220 O 1 RES   0.0000
3134 Si  32.1610  70.8720   0.0000 Si 1 RES   0.0000
3135 O  32.1610  72.2470   0.4860 O 1 RES   0.0000
3136 Si  32.1610  73.6220   0.9730 Si 1 RES   0.0000
3137 O  33.3520  70.1840   0.4860 O 1 RES   0.0000
3138 O  30.9700  70.1840   0.4860 O 1 RES   0.0000
3139 O  32.1610  73.6220   2.4310 O 1 RES   0.0000
3140 Si  32.1610  73.6220   3.8900 Si 1 RES   0.0000
3141 O  32.1610  72.2470   4.3770 O 1 RES   0.0000
3142 Si  32.1610  70.8720   4.8630 Si 1 RES   0.0000
3143 O  33.3520  70.1840   4.3770 O 1 RES   0.0000
3144 O  30.9700  70.1840   4.3770 O 1 RES   0.0000
3145 Si  32.1610  70.8720   7.7810 Si 1 RES   0.0000
3146 O  33.3520  70.1840   8.2670 O 1 RES   0.0000
3147 O  30.9700  70.1840   8.2670 O 1 RES   0.0000
3148 O  32.1610  72.2470   8.2670 O 1 RES   0.0000
3149 Si  32.1610  73.6220   8.7530 Si 1 RES   0.0000
3150 O  32.1610  73.6220  10.2120 O 1 RES   0.0000
3151 O  36.9250  70.8720   6.3220 O 1 RES   0.0000
3152 Si  36.9250  70.8720   0.0000 Si 1 RES   0.0000
3153 O  36.9250  72.2470   0.4860 O 1 RES   0.0000
3154 Si  36.9250  73.6220   0.9730 Si 1 RES   0.0000
3155 O  38.1170  70.1840   0.4860 O 1 RES   0.0000
3156 O  35.7340  70.1840   0.4860 O 1 RES   0.0000
3157 O  36.9250  73.6220   2.4310 O 1 RES   0.0000
3158 Si  36.9250  73.6220   3.8900 Si 1 RES   0.0000
3159 O  36.9250  72.2470   4.3770 O 1 RES   0.0000
3160 Si  36.9250  70.8720   4.8630 Si 1 RES   0.0000
3161 O  38.1170  70.1840   4.3770 O 1 RES   0.0000
3162 O  35.7340  70.1840   4.3770 O 1 RES   0.0000
3163 Si  36.9250  70.8720   7.7810 Si 1 RES   0.0000
3164 O  38.1170  70.1840   8.2670 O 1 RES   0.0000
3165 O  35.7340  70.1840   8.2670 O 1 RES   0.0000
3166 O  36.9250  72.2470   8.2670 O 1 RES   0.0000
3167 Si  36.9250  73.6220   8.7530 Si 1 RES   0.0000
3168 O  36.9250  73.6220  10.2120 O 1 RES   0.0000
3169 O  39.3080  66.7450   6.3220 O 1 RES   0.0000
3170 Si  39.3080  66.7450   0.0000 Si 1 RES   0.0000
3171 O  39.3080  68.1210   0.4860 O 1 RES   0.0000
3172 Si  39.3080  69.4960   0.9730 Si 1 RES   0.0000
3173 O  40.4990  66.0580   0.4860 O 1 RES   0.0000
3174 O  38.1170  66.0580   0.4860 O 1 RES   0.0000
3175 O  39.3080  69.4960   2.4310 O 1 RES   0.0000
3176 Si  39.3080  69.4960   3.8900 Si 1 RES   0.0000
3177 O  39.3080  68.1210   4.3770 O 1 RES   0.0000
3178 Si  39.3080  66.7450   4.8630 Si 1 RES   0.0000
3179 O  40.4990  66.0580   4.3770 O 1 RES   0.0000
3180 O  38.1170  66.0580   4.3770 O 1 RES   0.0000
3181 Si  39.3080  66.7450   7.7810 Si 1 RES   0.0000
3182 O  40.4990  66.0580   8.2670 O 1 RES   0.0000
3183 O  38.1170  66.0580   8.2670 O 1 RES   0.0000
3184 O  39.3080  68.1210   8.2670 O 1 RES   0.0000
3185 Si  39.3080  69.4960   8.7530 Si 1 RES   0.0000
3186 O  39.3080  69.4960  10.2120 O 1 RES   0.0000
3187 O  44.0720  66.7450   6.3220 O 1 RES   0.0000
3188 Si  44.0720  66.7450   0.0000 Si 1 RES   0.0000
3189 O  44.0720  68.1210   0.4860 O 1 RES   0.0000
3190 Si  44.0720  69.4960   0.9730 Si 1 RES   0.0000
3191 O  45.2640  66.0580   0.4860 O 1 RES   0.0000
3192 O  42.8810  66.0580   0.4860 O 1 RES   0.0000
3193 O  44.0720  69.4960   2.4310 O 1 RES   0.0000
3194 Si  44.0720  69.4960   3.8900 Si 1 RES   0.0000
3195 O  44.0720  68.1210   4.3770 O 1 RES   0.0000
3196 Si  44.0720  66.7450   4.8630 Si 1 RES   0.0000
3197 O  45.2640  66.0580   4.3770 O 1 RES   0.0000
3198 O  42.8810  66.0580   4.3770 O 1 RES   0.0000
3199 Si  44.0720  66.7450   7.7810 Si 1 RES   0.0000
3200 O  45.2640  66.0580   8.2670 O 1 RES   0.0000
3201 O  42.8810  66.0580   8.2670 O 1 RES   0.0000
3202 O  44.0720  68.1210   8.2670 O 1 RES   0.0000
3203 Si  44.0720  69.4960   8.7530 Si 1 RES   0.0000
3204 O  44.0720  69.4960  10.2120 O 1 RES   0.0000
3205 O  41.6900  70.8720   6.3220 O 1 RES   0.0000
3206 Si  41.6900  70.8720   0.0000 Si 1 RES   0.0000
3207 O  41.6900  72.2470   0.4860 O 1 RES   0.0000
3208 Si  41.6900  73.6220   0.9730 Si 1 RES   0.0000
3209 O  42.8810  70.1840   0.4860 O 1 RES   0.0000
3210 O  40.4990  70.1840   0.4860 O 1 RES   0.0000
3211 O  41.6900  73.6220   2.4310 O 1 RES   0.0000
3212 Si  41.6900  73.6220   3.8900 Si 1 RES   0.0000
3213 O  41.6900  72.2470   4.3770 O 1 RES   0.0000
3214 Si  41.6900  70.8720   4.8630 Si 1 RES   0.0000
3215 O  42.8810  70.1840   4.3770 O 1 RES   0.0000
3216 O  40.4990  70.1840   4.3770 O 1 RES   0.0000
3217 Si  41.6900  70.8720   7.7810 Si 1 RES   0.0000
3218 O  42.8810  70.1840   8.2670 O 1 RES   0.0000
3219 O  40.4990  70.1840   8.2670 O 1 RES   0.0000
3220 O  41.6900  72.2470   8.2670 O 1 RES   0.0000
3221 Si  41.6900  73.6220   8.7530 Si 1 RES   0.0000
3222 O  41.6900  73.6220  10.2120 O 1 RES   0.0000
3223 O  46.4550  70.8720   6.3220 O 1 RES   0.0000
3224 Si  46.4550  70.8720   0.0000 Si 1 RES   0.0000
3225 O  46.4550  72.2470   0.4860 O 1 RES   0.0000
3226 Si  46.4550  73.6220   0.9730 Si 1 RES   0.0000
3227 O  -0.0430  70.1840   0.4860 O 1 RES   0.0000
3228 O  45.2640  70.1840   0.4860 O 1 RES   0.0000
3229 O  46.4550  73.6220   2.4310 O 1 RES   0.0000
3230 Si  46.4550  73.6220   3.8900 Si 1 RES   0.0000
3231 O  46.4550  72.2470   4.3770 O 1 RES   0.0000
3232 Si  46.4550  70.8720   4.8630 Si 1 RES   0.0000
3233 O  -0.0430  70.1840   4.3770 O 1 RES   0.0000
3234 O  45.2640  70.1840   4.3770 O 1 RES   0.0000
3235 Si  46.4550  70.8720   7.7810 Si 1 RES   0.0000
3236 O  -0.0430  70.1840   8.2670 O 1 RES   0.0000
3237 O  45.2640  70.1840   8.2670 O 1 RES   0.0000
3238 O  46.4550  72.2470   8.2670 O 1 RES   0.0000
3239 Si  46.4550  73.6220   8.7530 Si 1 RES   0.0000
3240 O  46.4550  73.6220  10.2120 O 1 RES   0.0000
3241 O   1.1910  74.9980   6.3220 O 1 RES   0.0000
3242 Si   1.1910  74.9980   0.0000 Si 1 RES   0.0000
3243 O   1.1910  76.3730   0.4860 O 1 RES   0.0000
3244 Si   1.1910  77.7490   0.9730 Si 1 RES   0.0000
3245 O   2.3820  74.3100   0.4860 O 1 RES   0.0000
3246 O   0.0000  74.3100   0.4860 O 1 RES   0.0000
3247 O   1.1910  77.7490   2.4310 O 1 RES   0.0000
3248 Si   1.1910  77.7490   3.8900 Si 1 RES   0.0000
3249 O   1.1910  76.3730   4.3770 O 1 RES   0.0000
3250 Si   1.1910  74.9980   4.8630 Si 1 RES   0.0000
3251 O   2.3820  74.3100   4.3770 O 1 RES   0.0000
3252 O   0.0000  74.3100   4.3770 O 1 RES   0.0000
3253 Si   1.1910  74.9980   7.7810 Si 1 RES   0.0000
3254 O   2.3820  74.3100   8.2670 O 1 RES   0.0000
3255 O   0.0000  74.3100   8.2670 O 1 RES   0.0000
3256 O   1.1910  76.3730   8.2670 O 1 RES   0.0000
3257 Si   1.1910  77.7490   8.7530 Si 1 RES   0.0000
3258 O   1.1910  77.7490  10.2120 O 1 RES   0.0000
3259 O   5.9560  74.9980   6.3220 O 1 RES   0.0000
3260 Si   5.9560  74.9980   0.0000 Si 1 RES   0.0000
3261 O   5.9560  76.3730   0.4860 O 1 RES   0.0000
3262 Si   5.9560  77.7490   0.9730 Si 1 RES   0.0000
3263 O   7.1470  74.3100   0.4860 O 1 RES   0.0000
3264 O   4.7650  74.3100   0.4860 O 1 RES   0.0000
3265 O   5.9560  77.7490   2.4310 O 1 RES   0.0000
3266 Si   5.9560  77.7490   3.8900 Si 1 RES   0.0000
3267 O   5.9560  76.3730   4.3770 O 1 RES   0.0000
3268 Si   5.9560  74.9980   4.8630 Si 1 RES   0.0000
3269 O   7.1470  74.3100   4.3770 O 1 RES   0.0000
3270 O   4.7650  74.3100   4.3770 O 1 RES   0.0000
3271 Si   5.9560  74.9980   7.7810 Si 1 RES   0.0000
3272 O   7.1470  74.3100   8.2670 O 1 RES   0.0000
3273 O   4.7650  74.3100   8.2670 O 1 RES   0.0000
3274 O   5.9560  76.3730   8.2670 O 1 RES   0.0000
3275 Si   5.9560  77.7490   8.7530 Si 1 RES   0.0000
3276 O   5.9560  77.7490  10.2120 O 1 RES   0.0000
3277 O   3.5730  79.1240   6.3220 O 1 RES   0.0000
3278 Si   3.5730  79.1240   0.0000 Si 1 RES   0.0000
3279 O   3.5730  80.4990   0.4860 O 1 RES   0.0000
3280 Si   3.5730  40.5750   0.9730 Si 1 RES   0.0000
3281 O   4.7650  78.4360   0.4860 O 1 RES   0.0000
3282 O   2.3820  78.4360   0.4860 O 1 RES   0.0000
3283 O   3.5730  40.5750   2.4310 O 1 RES   0.0000
3284 Si   3.5730  40.5750   3.8900 Si 1 RES   0.0000
3285 O   3.5730  80.4990   4.3770 O 1 RES   0.0000
3286 Si   3.5730  79.1240   4.8630 Si 1 RES   0.0000
3287 O   4.7650  78.4360   4.3770 O 1 RES   0.0000
3288 O   2.3820  78.4360   4.3770 O 1 RES   0.0000
3289 Si   3.5730  79.1240   7.7810 Si 1 RES   0.0000
3290 O   4.7650  78.4360   8.2670 O 1 RES   0.0000
3291 O   2.3820  78.4360   8.2670 O 1 RES   0.0000
3292 O   3.5730  80.4990   8.2670 O 1 RES   0.0000
3293 Si   3.5730  40.5750   8.7530 Si 1 RES   0.0000
3294 O   3.5730  40.5750  10.2120 O 1 RES   0.0000
3295 O   8.3380  79.1240   6.3220 O 1 RES   0.0000
3296 Si   8.3380  79.1240   0.0000 Si 1 RES   0.0000
3297 O   8.3380  80.4990   0.4860 O 1 RES   0.0000
3298 Si   8.3380  40.5750   0.9730 Si 1 RES   0.0000
3299 O   9.5290  78.4360   0.4860 O 1 RES   0.0000
3300 O   7.1470  78.4360   0.4860 O 1 RES   0.0000
3301 O   8.3380  40.5750   2.4310 O 1 RES   0.0000
3302 Si   8.3380  40.5750   3.8900 Si 1 RES   0.0000
3303 O   8.3380  80.4990   4.3770 O 1 RES   0.0000
3304 Si   8.3380  79.1240   4.8630 Si 1 RES   0.0000
3305 O   9.5290  78.4360   4.3770 O 1 RES   0.0000
3306 O   7.1470  78.4360   4.3770 O 1 RES   0.0000
3307 Si   8.3380  79.1240   7.7810 Si 1 RES   0.0000
3308 O   9.5290  78.4360   8.2670 O 1 RES   0.0000
3309 O   7.1470  78.4360   8.2670 O 1 RES   0.0000
3310 O   8.3380  80.4990   8.2670 O 1 RES   0.0000
3311 Si   8.3380  40.5750   8.7530 Si 1 RES   0.0000
3312 O   8.3380  40.5750  10.2120 O 1 RES   0.0000
3313 O  10.7200  74.9980   6.3220 O 1 RES   0.0000
3314 Si  10.7200  74.9980   0.0000 Si 1 RES   0.0000
3315 O  10.7200  76.3730   0.4860 O 1 RES   0.0000
3316 Si  10.7200  77.7490   0.9730 Si 1 RES   0.0000
3317 O  11.9120  74.3100   0.4860 O 1 RES   0.0000
3318 O   9.5290  74.3100   0.4860 O 1 RES   0.0000
3319 O  10.7200  77.7490   2.4310 O 1 RES   0.0000
3320 Si  10.7200  77.7490   3.8900 Si 1 RES   0.0000
3321 O  10.7200  76.3730   4.3770 O 1 RES   0.0000
3322 Si  10.7200  74.9980   4.8630 Si 1 RES   0.0000
3323 O  11.9120  74.3100   4.3770 O 1 RES   0.0000
3324 O   9.5290  74.3100   4.3770 O 1 RES   0.0000
3325 Si  10.7200  74.9980   7.7810 Si 1 RES   0.0000
3326 O  11.9120  74.3100   8.2670 O 1 RES   0.0000
3327 O   9.5290  74.3100   8.2670 O 1 RES   0.0000
3328 O  10.7200  76.3730   8.2670 O 1 RES   0.0000
3329 Si  10.7200  77.7490   8.7530 Si 1 RES   0.0000
3330 O  10.7200  77.7490  10.2120 O 1 RES   0.0000
3331 O  15.4850  74.9980   6.3220 O 1 RES   0.0000
3332 Si  15.4850  74.9980   0.0000 Si 1 RES   0.0000
3333 O  15.4850  76.3730   0.4860 O 1 RES   0.0000
3334 Si  15.4850  77.7490   0.9730 Si 1 RES   0.0000
3335 O  16.6760  74.3100   0.4860 O 1 RES   0.0000
3336 O  14.2940  74.3100   0.4860 O 1 RES   0.0000
3337 O  15.4850  77.7490   2.4310 O 1 RES   0.0000
3338 Si  15.4850  77.7490   3.8900 Si 1 RES   0.0000
3339 O  15.4850  76.3730   4.3770 O 1 RES   0.0000
3340 Si  15.4850  74.9980   4.8630 Si 1 RES   0.0000
3341 O  16.6760  74.3100   4.3770 O 1 RES   0.0000
3342 O  14.2940  74.3100   4.3770 O 1 RES   0.0000
3343 Si  15.4850  74.9980   7.7810 Si 1 RES   0.0000
3344 O  16.6760  74.3100   8.2670 O 1 RES   0.0000
3345 O  14.2940  74.3100   8.2670 O 1 RES   0.0000
3346 O  15.4850  76.3730   8.2670 O 1 RES   0.0000
3347 Si  15.4850  77.7490   8.7530 Si 1 RES   0.0000
3348 O  15.4850  77.7490  10.2120 O 1 RES   0.0000
3349 O  13.1030  79.1240   6.3220 O 1 RES   0.0000
3350 Si  13.1030  79.1240   0.0000 Si 1 RES   0.0000
3351 O  13.1030  80.4990   0.4860 O 1 RES   0.0000
3352 Si  13.1030  40.5750   0.9730 Si 1 RES   0.0000
3353 O  14.2940  78.4360   0.4860 O 1 RES   0.0000
3354 O  11.9120  78.4360   0.4860 O 1 RES   0.0000
3355 O  13.1030  40.5750   2.4310 O 1 RES   0.0000
3356 Si  13.1030  40.5750   3.8900 Si 1 RES   0.0000
3357 O  13.1030  80.4990   4.3770 O 1 RES   0.0000
3358 Si  13.1030  79.1240   4.8630 Si 1 RES   0.0000
3359 O  14.2940  78.4360   4.3770 O 1 RES   0.0000
3360 O  11.9120  78.4360   4.3770 O 1 RES   0.0000
3361 Si  13.1030  79.1240   7.7810 Si 1 RES   0.0000
3362 O  14.2940  78.4360   8.2670 O 1 RES   0.0000
3363 O  11.9120  78.4360   8.2670 O 1 RES   0.0000
3364 O  13.1030  80.4990   8.2670 O 1 RES   0.0000
3365 Si  13.1030  40.5750   8.7530 Si 1 RES   0.0000
3366 O  13.1030  40.5750  10.2120 O 1 RES   0.0000
3367 O  17.8670  79.1240   6.3220 O 1 RES   0.0000
3368 Si  17.8670  79.1240   0.0000 Si 1 RES   0.0000
3369 O  17.8670  80.4990   0.4860 O 1 RES   0.0000
3370 Si  17.8670  40.5750   0.9730 Si 1 RES   0.0000
3371 O  19.0580  78.4360   0.4860 O 1 RES   0.0000
3372 O  16.6760  78.4360   0.4860 O 1 RES   0.0000
3373 O  17.8670  40.5750   2.4310 O 1 RES   0.0000
3374 Si  17.8670  40.5750   3.8900 Si 1 RES   0.0000
3375 O  17.8670  80.4990   4.3770 O 1 RES   0.0000
3376 Si  17.8670  79.1240   4.8630 Si 1 RES   0.0000
3377 O  19.0580  78.4360   4.3770 O 1 RES   0.0000
3378 O  16.6760  78.4360   4.3770 O 1 RES   0.0000
3379 Si  17.8670  79.1240   7.7810 Si 1 RES   0.0000
3380 O  19.0580  78.4360   8.2670 O 1 RES   0.0000
3381 O  16.6760  78.4360   8.2670 O 1 RES   0.0000
3382 O  17.8670  80.4990   8.2670 O 1 RES   0.0000
3383 Si  17.8670  40.5750   8.7530 Si 1 RES   0.0000
3384 O  17.8670  40.5750  10.2120 O 1 RES   0.0000
3385 O  20.2500  74.9980   6.3220 O 1 RES   0.0000
3386 Si  20.2500  74.9980   0.0000 Si 1 RES   0.0000
3387 O  20.2500  76.3730   0.4860 O 1 RES   0.0000
3388 Si  20.2500  77.7490   0.9730 Si 1 RES   0.0000
3389 O  21.4410  74.3100   0.4860 O 1 RES   0.0000
3390 O  19.0580  74.3100   0.4860 O 1 RES   0.0000
3391 O  20.2500  77.7490   2.4310 O 1 RES   0.0000
3392 Si  20.2500  77.7490   3.8900 Si 1 RES   0.0000
3393 O  20.2500  76.3730   4.3770 O 1 RES   0.0000
3394 Si  20.2500  74.9980   4.8630 Si 1 RES   0.0000
3395 O  21.4410  74.3100   4.3770 O 1 RES   0.0000
3396 O  19.0580  74.3100   4.3770 O 1 RES   0.0000
3397 Si  20.2500  74.9980   7.7810 Si 1 RES   0.0000
3398 O  21.4410  74.3100   8.2670 O 1 RES   0.0000
3399 O  19.0580  74.3100   8.2670 O 1 RES   0.0000
3400 O  20.2500  76.3730   8.2670 O 1 RES   0.0000
3401 Si  20.2500  77.7490   8.7530 Si 1 RES   0.0000
3402 O  20.2500  77.7490  10.2120 O 1 RES   0.0000
3403 O  25.0140  74.9980   6.3220 O 1 RES   0.0000
3404 Si  25.0140  74.9980   0.0000 Si 1 RES   0.0000
3405 O  25.0140  76.3730   0.4860 O 1 RES   0.0000
3406 Si  25.0140  77.7490   0.9730 Si 1 RES   0.0000
3407 O  26.2050  74.3100   0.4860 O 1 RES   0.0000
3408 O  23.8230  74.3100   0.4860 O 1 RES   0.0000
3409 O  25.0140  77.7490   2.4310 O 1 RES   0.0000
3410 Si  25.0140  77.7490   3.8900 Si 1 RES   0.0000
3411 O  25.0140  76.3730   4.3770 O 1 RES   0.0000
3412 Si  25.0140  74.9980   4.8630 Si 1 RES   0.0000
3413 O  26.2050  74.3100   4.3770 O 1 RES   0.0000
3414 O  23.8230  74.3100   4.3770 O 1 RES   0.0000
3415 Si  25.0140  74.9980   7.7810 Si 1 RES   0.0000
3416 O  26.2050  74.3100   8.2670 O 1 RES   0.0000
3417 O  23.8230  74.3100   8.2670 O 1 RES   0.0000
3418 O  25.0140  76.3730   8.2670 O 1 RES   0.0000
3419 Si  25.0140  77.7490   8.7530 Si 1 RES   0.0000
3420 O  25.0140  77.7490  10.2120 O 1 RES   0.0000
3421 O  22.6320  79.1240   6.3220 O 1 RES   0.0000
3422 Si  22.6320  79.1240   0.0000 Si 1 RES   0.0000
3423 O  22.6320  80.4990   0.4860 O 1 RES   0.0000
3424 Si  22.6320  40.5750   0.9730 Si 1 RES   0.0000
3425 O  23.8230  78.4360   0.4860 O 1 RES   0.0000
3426 O  21.4410  78.4360   0.4860 O 1 RES   0.0000
3427 O  22.6320  40.5750   2.4310 O 1 RES   0.0000
3428 Si  22.6320  40.5750   3.8900 Si 1 RES   0.0000
3429 O  22.6320  80.4990   4.3770 O 1 RES   0.0000
3430 Si  22.6320  79.1240   4.8630 Si 1 RES   0.0000
3431 O  23.8230  78.4360   4.3770 O 1 RES   0.0000
3432 O  21.4410  78.4360   4.3770 O 1 RES   0.0000
3433 Si  22.6320  79.1240   7.7810 Si 1 RES   0.0000
3434 O  23.8230  78.4360   8.2670 O 1 RES   0.0000
3435 O  21.4410  78.4360   8.2670 O 1 RES   0.0000
3436 O  22.6320  80.4990   8.2670 O 1 RES   0.0000
3437 Si  22.6320  40.5750   8.7530 Si 1 RES   0.0000
3438 O  22.6320  40.5750  10.2120 O 1 RES   0.0000
3439 O  27.3960  79.1240   6.3220 O 1 RES   0.0000
3440 Si  27.3960  79.1240   0.0000 Si 1 RES   0.0000
3441 O  27.3960  80.4990   0.4860 O 1 RES   0.0000
3442 Si  27.3960  40.5750   0.9730 Si 1 RES   0.0000
3443 O  28.5870  78.4360   0.4860 O 1 RES   0.0000
3444 O  26.2050  78.4360   0.4860 O 1 RES   0.0000
3445 O  27.3960  40.5750   2.4310 O 1 RES   0.0000
3446 Si  27.3960  40.5750   3.8900 Si 1 RES   0.0000
3447 O  27.3960  80.4990   4.3770 O 1 RES   0.0000
3448 Si  27.3960  79.1240   4.8630 Si 1 RES   0.0000
3449 O  28.5870  78.4360   4.3770 O 1 RES   0.0000
3450 O  26.2050  78.4360   4.3770 O 1 RES   0.0000
3451 Si  27.3960  79.1240   7.7810 Si 1 RES   0.0000
3452 O  28.5870  78.4360   8.2670 O 1 RES   0.0000
3453 O  26.2050  78.4360   8.2670 O 1 RES   0.0000
3454 O  27.3960  80.4990   8.2670 O 1 RES   0.0000
3455 Si  27.3960  40.5750   8.7530 Si 1 RES   0.0000
3456 O  27.3960  40.5750  10.2120 O 1 RES   0.0000
3457 O  29.7790  74.9980   6.3220 O 1 RES   0.0000
3458 Si  29.7790  74.9980   0.0000 Si 1 RES   0.0000
3459 O  29.7790  76.3730   0.4860 O 1 RES   0.0000
3460 Si  29.7790  77.7490   0.9730 Si 1 RES   0.0000
3461 O  30.9700  74.3100   0.4860 O 1 RES   0.0000
3462 O  28.5870  74.3100   0.4860 O 1 RES   0.0000
3463 O  29.7790  77.7490   2.4310 O 1 RES   0.0000
3464 Si  29.7790  77.7490   3.8900 Si 1 RES   0.0000
3465 O  29.7790  76.3730   4.3770 O 1 RES   0.0000
3466 Si  29.7790  74.9980   4.8630 Si 1 RES   0.0000
3467 O  30.9700  74.3100   4.3770 O 1 RES   0.0000
3468 O  28.5870  74.3100   4.3770 O 1 RES   0.0000
3469 Si  29.7790  74.9980   7.7810 Si 1 RES   0.0000
3470 O  30.9700  74.3100   8.2670 O 1 RES   0.0000
3471 O  28.5870  74.3100   8.2670 O 1 RES   0.0000
3472 O  29.7790  76.3730   8.2670 O 1 RES   0.0000
3473 Si  29.7790  77.7490   8.7530 Si 1 RES   0.0000
3474 O  29.7790  77.7490  10.2120 O 1 RES   0.0000
3475 O  34.5430  74.9980   6.3220 O 1 RES   0.0000
3476 Si  34.5430  74.9980   0.0000 Si 1 RES   0.0000
3477 O  34.5430  76.3730   0.4860 O 1 RES   0.0000
3478 Si  34.5430  77.7490   0.9730 Si 1 RES   0.0000
3479 O  35.7340  74.3100   0.4860 O 1 RES   0.0000
3480 O  33.3520  74.3100   0.4860 O 1 RES   0.0000
3481 O  34.5430  77.7490   2.4310 O 1 RES   0.0000
3482 Si  34.5430  77.7490   3.8900 Si 1 RES   0.0000
3483 O  34.5430  76.3730   4.3770 O 1 RES   0.0000
3484 Si  34.5430  74.9980   4.8630 Si 1 RES   0.0000
3485 O  35.7340  74.3100   4.3770 O 1 RES   0.0000
3486 O  33.3520  74.3100   4.3770 O 1 RES   0.0000
3487 Si  34.5430  74.9980   7.7810 Si 1 RES   0.0000
3488 O  35.7340  74.3100   8.2670 O 1 RES   0.0000
3489 O  33.3520  74.3100   8.2670 O 1 RES   0.0000
3490 O  34.5430  76.3730   8.2670 O 1 RES   0.0000
3491 Si  34.5430  77.7490   8.7530 Si 1 RES   0.0000
3492 O  34.5430  77.7490  10.2120 O 1 RES   0.0000
3493 O  32.1610  79.1240   6.3220 O 1 RES   0.0000
3494 Si  32.1610  79.1240   0.0000 Si 1 RES   0.0000
3495 O  32.1610  80.4990   0.4860 O 1 RES   0.0000
3496 Si  32.1610  40.5750   0.9730 Si 1 RES   0.0000
3497 O  33.3520  78.4360   0.4860 O 1 RES   0.0000
3498 O  30.9700  78.4360   0.4860 O 1 RES   0.0000
3499 O  32.1610  40.5750   2.4310 O 1 RES   0.0000
3500 Si  32.1610  40.5750   3.8900 Si 1 RES   0.0000
3501 O  32.1610  80.4990   4.3770 O 1 RES   0.0000
3502 Si  32.1610  79.1240   4.8630 Si 1 RES   0.0000
3503 O  33.3520  78.4360   4.3770 O 1 RES   0.0000
3504 O  30.9700  78.4360   4.3770 O 1 RES   0.0000
3505 Si  32.1610  79.1240   7.7810 Si 1 RES   0.0000
3506 O  33.3520  78.4360   8.2670 O 1 RES   0.0000
3507 O  30.9700  78.4360   8.2670 O 1 RES   0.0000
3508 O  32.1610  80.4990   8.2670 O 1 RES   0.0000
3509 Si  32.1610  40.5750   8.7530 Si 1 RES   0.0000
3510 O  32.1610  40.5750  10.2120 O 1 RES   0.0000
3511 O  36.9250  79.1240   6.3220 O 1 RES   0.0000
3512 Si  36.9250  79.1240   0.0000 Si 1 RES   0.0000
3513 O  36.9250  80.4990   0.4860 O 1 RES   0.0000
3514 Si  36.9250  40.5750   0.9730 Si 1 RES   0.0000
3515 O  38.1170  78.4360   0.4860 O 1 RES   0.0000
3516 O  35.7340  78.4360   0.4860 O 1 RES   0.0000
3517 O  36.9250  40.5750   2.4310 O 1 RES   0.0000
3518 Si  36.9250  40.5750   3.8900 Si 1 RES   0.0000
3519 O  36.9250  80.4990   4.3770 O 1 RES   0.0000
3520 Si  36.9250  79.1240   4.8630 Si 1 RES   0.0000
3521 O  38.1170  78.4360   4.3770 O 1 RES   0.0000
3522 O  35.7340  78.4360   4.3770 O 1 RES   0.0000
3523 Si  36.9250  79.1240   7.7810 Si 1 RES   0.0000
3524 O  38.1170  78.4360   8.2670 O 1 RES   0.0000
3525 O  35.7340  78.4360   8.2670 O 1 RES   0.0000
3526 O  36.9250  80.4990   8.2670 O 1 RES   0.0000
3527 Si  36.9250  40.5750   8.7530 Si 1 RES   0.0000
3528 O  36.9250  40.5750  10.2120 O 1 RES   0.0000
3529 O  39.3080  74.9980   6.3220 O 1 RES   0.0000
3530 Si  39.3080  74.9980   0.0000 Si 1 RES   0.0000
3531 O  39.3080  76.3730   0.4860 O 1 RES   0.0000
3532 Si  39.3080  77.7490   0.9730 Si 1 RES   0.0000
3533 O  40.4990  74.3100   0.4860 O 1 RES   0.0000
3534 O  38.1170  74.3100   0.4860 O 1 RES   0.0000
3535 O  39.3080  77.7490   2.4310 O 1 RES   0.0000
3536 Si  39.3080  77.7490   3.8900 Si 1 RES   0.0000
3537 O  39.3080  76.3730   4.3770 O 1 RES   0.0000
3538 Si  39.3080  74.9980   4.8630 Si 1 RES   0.0000
3539 O  40.4990  74.3100   4.3770 O 1 RES   0.0000
3540 O  38.1170  74.3100   4.3770 O 1 RES   0.0000
3541 Si  39.3080  74.9980   7.7810 Si 1 RES   0.0000
3542 O  40.4990  74.3100   8.2670 O 1 RES   0.0000
3543 O  38.1170  74.3100   8.2670 O 1 RES   0.0000
3544 O  39.3080  76.3730   8.2670 O 1 RES   0.0000
3545 Si  39.3080  77.7490   8.7530 Si 1 RES   0.0000
3546 O  39.3080  77.7490  10.2120 O 1 RES   0.0000
3547 O  44.0720  74.9980   6.3220 O 1 RES   0.0000
3548 Si  44.0720  74.9980   0.0000 Si 1 RES   0.0000
3549 O  44.0720  76.3730   0.4860 O 1 RES   0.0000
3550 Si  44.0720  77.7490   0.9730 Si 1 RES   0.0000
3551 O  45.2640  74.3100   0.4860 O 1 RES   0.0000
3552 O  42.8810  74.3100   0.4860 O 1 RES   0.0000
3553 O  44.0720  77.7490   2.4310 O 1 RES   0.0000
3554 Si  44.0720  77.7490   3.8900 Si 1 RES   0.0000
3555 O  44.0720  76.3730   4.3770 O 1 RES   0.0000
3556 Si  44.0720  74.9980   4.8630 Si 1 RES   0.0000
3557 O  45.2640  74.3100   4.3770 O 1 RES   0.0000
3558 O  42.8810  74.3100   4.3770 O 1 RES   0.0000
3559 Si  44.0720  74.9980   7.7810 Si 1 RES   0.0000
3560 O  45.2640  74.3100   8.2670 O 1 RES   0.0000
3561 O  42.8810  74.3100   8.2670 O 1 RES   0.0000
3562 O  44.0720  76.3730   8.2670 O 1 RES   0.0000
3563 Si  44.0720  77.7490   8.7530 Si 1 RES   0.0000
3564 O  44.0720  77.7490  10.2120 O 1 RES   0.0000
3565 O  41.6900  79.1240   6.3220 O 1 RES   0.0000
3566 Si  41.6900  79.1240   0.0000 Si 1 RES   0.0000
3567 O  41.6900  80.4990   0.4860 O 1 RES   0.0000
3568 Si  41.6900  40.5750   0.9730 Si 1 RES   0.0000
3569 O  42.8810  78.4360   0.4860 O 1 RES   0.0000
3570 O  40.4990  78.4360   0.4860 O 1 RES   0.0000
3571 O  41.6900  40.5750   2.4310 O 1 RES   0.0000
3572 Si  41.6900  40.5750   3.8900 Si 1 RES   0.0000
3573 O  41.6900  80.4990   4.3770 O 1 RES   0.0000
3574 Si  41.6900  79.1240   4.8630 Si 1 RES   0.0000
3575 O  42.8810  78.4360   4.3770 O 1 RES   0.0000
3576 O  40.4990  78.4360   4.3770 O 1 RES   0.0000
3577 Si  41.6900  79.1240   7.7810 Si 1 RES   0.0000
3578 O  42.8810  78.4360   8.2670 O 1 RES   0.0000
3579 O  40.4990  78.4360   8.2670 O 1 RES   0.0000
3580 O  41.6900  80.4990   8.2670 O 1 RES   0.0000
3581 Si  41.6900  40.5750   8.7530 Si 1 RES   0.0000
3582 O  41.6900  40.5750  10.2120 O 1 RES   0.0000
3583 O  46.4550  79.1240   6.3220 O 1 RES   0.0000
3584 Si  46.4550  79.1240   0.0000 Si 1 RES   0.0000
3585 O  46.4550  80.4990   0.4860 O 1 RES   0.0000
3586 Si  46.4550  40.5750   0.9730 Si 1 RES   0.0000
3587 O  -0.0430  78.4360   0.4860 O 1 RES   0.0000
3588 O  45.2640  78.4360   0.4860 O 1 RES   0.0000
3589 O  46.4550  40.5750   2.4310 O 1 RES   0.0000
3590 Si  46.4550  40.5750   3.8900 Si 1 RES   0.0000
3591 O  46.4550  80.4990   4.3770 O 1 RES   0.0000
3592 Si  46.4550  79.1240   4.8630 Si 1 RES   0.0000
3593 O  -0.0430  78.4360   4.3770 O 1 RES   0.0000
3594 O  45.2640  78.4360   4.3770 O 1 RES   0.0000
3595 Si  46.4550  79.1240   7.7810 Si 1 RES   0.0000
3596 O  -0.0430  78.4360   8.2670 O 1 RES   0.0000
3597 O  45.2640  78.4360   8.2670 O 1 RES   0.0000
3598 O  46.4550  80.4990   8.2670 O 1 RES   0.0000
3599 Si  46.4550  40.5750   8.7530 Si 1 RES   0.0000
3600 O  46.4550  40.5750  10.2120 O 1 RES   0.0000
3601 O   1.1910  83.2880   6.3220 O 1 RES   0.0000
3602 Si   1.1910  83.2880   0.0000 Si 1 RES   0.0000
3603 O   1.1910  84.6630   0.4860 O 1 RES   0.0000
3604 Si   1.1910  86.0390   0.9730 Si 1 RES   0.0000
3605 O   2.3820  82.6000   0.4860 O 1 RES   0.0000
3606 O   0.0000  82.6000   0.4860 O 1 RES   0.0000
3607 O   1.1910  86.0390   2.4310 O 1 RES   0.0000
3608 Si   1.1910  86.0390   3.8900 Si 1 RES   0.0000
3609 O   1.1910  84.6630   4.3770 O 1 RES   0.0000
3610 Si   1.1910  83.2880   4.8630 Si 1 RES   0.0000
3611 O   2.3820  82.6000   4.3770 O 1 RES   0.0000
3612 O   0.0000  82.6000   4.3770 O 1 RES   0.0000
3613 Si   1.1910  83.2880   7.7810 Si 1 RES   0.0000
3614 O   2.3820  82.6000   8.2670 O 1 RES   0.0000
3615 O   0.0000  82.6000   8.2670 O 1 RES   0.0000
3616 O   1.1910  84.6630   8.2670 O 1 RES   0.0000
3617 Si   1.1910  86.0390   8.7530 Si 1 RES   0.0000
3618 O   1.1910  86.0390  10.2120 O 1 RES   0.0000
3619 O   5.9560  83.2880   6.3220 O 1 RES   0.0000
3620 Si   5.9560  83.2880   0.0000 Si 1 RES   0.0000
3621 O   5.9560  84.6630   0.4860 O 1 RES   0.0000
3622 Si   5.9560  86.0390   0.9730 Si 1 RES   0.0000
3623 O   7.1470  82.6000   0.4860 O 1 RES   0.0000
3624 O   4.7650  82.6000   0.4860 O 1 RES   0.0000
3625 O   5.9560  86.0390   2.4310 O 1 RES   0.0000
3626 Si   5.9560  86.0390   3.8900 Si 1 RES   0.0000
3627 O   5.9560  84.6630   4.3770 O 1 RES   0.0000
3628 Si   5.9560  83.2880   4.8630 Si 1 RES   0.0000
3629 O   7.1470  82.6000   4.3770 O 1 RES   0.0000
3630 O   4.7650  82.6000   4.3770 O 1 RES   0.0000
3631 Si   5.9560  83.2880   7.7810 Si 1 RES   0.0000
3632 O   7.1470  82.6000   8.2670 O 1 RES   0.0000
3633 O   4.7650  82.6000   8.2670 O 1 RES   0.0000
3634 O   5.9560  84.6630   8.2670 O 1 RES   0.0000
3635 Si   5.9560  86.0390   8.7530 Si 1 RES   0.0000
3636 O   5.9560  86.0390  10.2120 O 1 RES   0.0000
3637 O   3.5730  87.4140   6.3220 O 1 RES   0.0000
3638 Si   3.5730  87.4140   0.0000 Si 1 RES   0.0000
3639 O   3.5730  88.7890   0.4860 O 1 RES   0.0000
3640 Si   3.5730  90.1650   0.9730 Si 1 RES   0.0000
3641 O   4.7650  86.7260   0.4860 O 1 RES   0.0000
3642 O   2.3820  86.7260   0.4860 O 1 RES   0.0000
3643 O   3.5730  90.1650   2.4310 O 1 RES   0.0000
3644 Si   3.5730  90.1650   3.8900 Si 1 RES   0.0000
3645 O   3.5730  88.7890   4.3770 O 1 RES   0.0000
3646 Si   3.5730  87.4140   4.8630 Si 1 RES   0.0000
3647 O   4.7650  86.7260   4.3770 O 1 RES   0.0000
3648 O   2.3820  86.7260   4.3770 O 1 RES   0.0000
3649 Si   3.5730  87.4140   7.7810 Si 1 RES   0.0000
3650 O   4.7650  86.7260   8.2670 O 1 RES   0.0000
3651 O   2.3820  86.7260   8.2670 O 1 RES   0.0000
3652 O   3.5730  88.7890   8.2670 O 1 RES   0.0000
3653 Si   3.5730  90.1650   8.7530 Si 1 RES   0.0000
3654 O   3.5730  90.1650  10.2120 O 1 RES   0.0000
3655 O   8.3380  87.4140   6.3220 O 1 RES   0.0000
3656 Si   8.3380  87.4140   0.0000 Si 1 RES   0.0000
3657 O   8.3380  88.7890   0.4860 O 1 RES   0.0000
3658 Si   8.3380  90.1650   0.9730 Si 1 RES   0.0000
3659 O   9.5290  86.7260   0.4860 O 1 RES   0.0000
3660 O   7.1470  86.7260   0.4860 O 1 RES   0.0000
3661 O   8.3380  90.1650   2.4310 O 1 RES   0.0000
3662 Si   8.3380  90.1650   3.8900 Si 1 RES   0.0000
3663 O   8.3380  88.7890   4.3770 O 1 RES   0.0000
3664 Si   8.3380  87.4140   4.8630 Si 1 RES   0.0000
3665 O   9.5290  86.7260   4.3770 O 1 RES   0.0000
3666 O   7.1470  86.7260   4.3770 O 1 RES   0.0000
3667 Si   8.3380  87.4140   7.7810 Si 1 RES   0.0000
3668 O   9.5290  86.7260   8.2670 O 1 RES   0.0000
3669 O   7.1470  86.7260   8.2670 O 1 RES   0.0000
3670 O   8.3380  88.7890   8.2670 O 1 RES   0.0000
3671 Si   8.3380  90.1650   8.7530 Si 1 RES   0.0000
3672 O   8.3380  90.1650  10.2120 O 1 RES   0.0000
3673 O  10.7200  83.2880   6.3220 O 1 RES   0.0000
3674 Si  10.7200  83.2880   0.0000 Si 1 RES   0.0000
3675 O  10.7200  84.6630   0.4860 O 1 RES   0.0000
3676 Si  10.7200  86.0390   0.9730 Si 1 RES   0.0000
3677 O  11.9120  82.6000   0.4860 O 1 RES   0.0000
3678 O   9.5290  82.6000   0.4860 O 1 RES   0.0000
3679 O  10.7200  86.0390   2.4310 O 1 RES   0.0000
3680 Si  10.7200  86.0390   3.8900 Si 1 RES   0.0000
3681 O  10.7200  84.6630   4.3770 O 1 RES   0.0000
3682 Si  10.7200  83.2880   4.8630 Si 1 RES   0.0000
3683 O  11.9120  82.6000   4.3770 O 1 RES   0.0000
3684 O   9.5290  82.6000   4.3770 O 1 RES   0.0000
3685 Si  10.7200  83.2880   7.7810 Si 1 RES   0.0000
3686 O  11.9120  82.6000   8.2670 O 1 RES   0.0000
3687 O   9.5290  82.6000   8.2670 O 1 RES   0.0000
3688 O  10.7200  84.6630   8.2670 O 1 RES   0.0000
3689 Si  10.7200  86.0390   8.7530 Si 1 RES   0.0000
3690 O  10.7200  86.0390  10.2120 O 1 RES   0.0000
3691 O  15.4850  83.2880   6.3220 O 1 RES   0.0000
3692 Si  15.4850  83.2880   0.0000 Si 1 RES   0.0000
3693 O  15.4850  84.6630   0.4860 O 1 RES   0.0000
3694 Si  15.4850  86.0390   0.9730 Si 1 RES   0.0000
3695 O  16.6760  82.6000   0.4860 O 1 RES   0.0000
3696 O  14.2940  82.6000   0.4860 O 1 RES   0.0000
3697 O  15.4850  86.0390   2.4310 O 1 RES   0.0000
3698 Si  15.4850  86.0390   3.8900 Si 1 RES   0.0000
3699 O  15.4850  84.6630   4.3770 O 1 RES   0.0000
3700 Si  15.4850  83.2880   4.8630 Si 1 RES   0.0000
3701 O  16.6760  82.6000   4.3770 O 1 RES   0.0000
3702 O  14.2940  82.6000   4.3770 O 1 RES   0.0000
3703 Si  15.4850  83.2880   7.7810 Si 1 RES   0.0000
3704 O  16.6760  82.6000   8.2670 O 1 RES   0.0000
3705 O  14.2940  82.6000   8.2670 O 1 RES   0.0000
3706 O  15.4850  84.6630   8.2670 O 1 RES   0.0000
3707 Si  15.4850  86.0390   8.7530 Si 1 RES   0.0000
3708 O  15.4850  86.0390  10.2120 O 1 RES   0.0000
3709 O  13.1030  87.4140   6.3220 O 1 RES   0.0000
3710 Si  13.1030  87.4140   0.0000 Si 1 RES   0.0000
3711 O  13.1030  88.7890   0.4860 O 1 RES   0.0000
3712 Si  13.1030  90.1650   0.9730 Si 1 RES   0.0000
3713 O  14.2940  86.7260   0.4860 O 1 RES   0.0000
3714 O  11.9120  86.7260   0.4860 O 1 RES   0.0000
3715 O  13.1030  90.1650   2.4310 O 1 RES   0.0000
3716 Si  13.1030  90.1650   3.8900 Si 1 RES   0.0000
3717 O  13.1030  88.7890   4.3770 O 1 RES   0.0000
3718 Si  13.1030  87.4140   4.8630 Si 1 RES   0.0000
3719 O  14.2940  86.7260   4.3770 O 1 RES   0.0000
3720 O  11.9120  86.7260   4.3770 O 1 RES   0.0000
3721 Si  13.1030  87.4140   7.7810 Si 1 RES   0.0000
3722 O  14.2940  86.7260   8.2670 O 1 RES   0.0000
3723 O  11.9120  86.7260   8.2670 O 1 RES   0.0000
3724 O  13.1030  88.7890   8.2670 O 1 RES   0.0000
3725 Si  13.1030  90.1650   8.7530 Si 1 RES   0.0000
3726 O  13.1030  90.1650  10.2120 O 1 RES   0.0000
3727 O  17.8670  87.4140   6.3220 O 1 RES   0.0000
3728 Si  17.8670  87.4140   0.0000 Si 1 RES   0.0000
3729 O  17.8670  88.7890   0.4860 O 1 RES   0.0000
3730 Si  17.8670  90.1650   0.9730 Si 1 RES   0.0000
3731 O  19.0580  86.7260   0.4860 O 1 RES   0.0000
3732 O  16.6760  86.7260   0.4860 O 1 RES   0.0000
3733 O  17.8670  90.1650   2.4310 O 1 RES   0.0000
3734 Si  17.8670  90.1650   3.8900 Si 1 RES   0.0000
3735 O  17.8670  88.7890   4.3770 O 1 RES   0.0000
3736 Si  17.8670  87.4140   4.8630 Si 1 RES   0.0000
3737 O  19.0580  86.7260   4.3770 O 1 RES   0.0000
3738 O  16.6760  86.7260   4.3770 O 1 RES   0.0000
3739 Si  17.8670  87.4140   7.7810 Si 1 RES   0.0000
3740 O  19.0580  86.7260   8.2670 O 1 RES   0.0000
3741 O  16.6760  86.7260   8.2670 O 1 RES   0.0000
3742 O  17.8670  88.7890   8.2670 O 1 RES   0.0000
3743 Si  17.8670  90.1650   8.7530 Si 1 RES   0.0000
3744 O  17.8670  90.1650  10.2120 O 1 RES   0.0000
3745 O  20.2500  83.2880   6.3220 O 1 RES   0.0000
3746 Si  20.2500  83.2880   0.0000 Si 1 RES   0.0000
3747 O  20.2500  84.6630   0.4860 O 1 RES   0.0000
3748 Si  20.2500  86.0390   0.9730 Si 1 RES   0.0000
3749 O  21.4410  82.6000   0.4860 O 1 RES   0.0000
3750 O  19.0580  82.6000   0.4860 O 1 RES   0.0000
3751 O  20.2500  86.0390   2.4310 O 1 RES   0.0000
3752 Si  20.2500  86.0390   3.8900 Si 1 RES   0.0000
3753 O  20.2500  84.6630   4.3770 O 1 RES   0.0000
3754 Si  20.2500  83.2880   4.8630 Si 1 RES   0.0000
3755 O  21.4410  82.6000   4.3770 O 1 RES   0.0000
3756 O  19.0580  82.6000   4.3770 O 1 RES   0.0000
3757 Si  20.2500  83.2880   7.7810 Si 1 RES   0.0000
3758 O  21.4410  82.6000   8.2670 O 1 RES   0.0000
3759 O  19.0580  82.6000   8.2670 O 1 RES   0.0000
3760 O  20.2500  84.6630   8.2670 O 1 RES   0.0000
3761 Si  20.2500  86.0390   8.7530 Si 1 RES   0.0000
3762 O  20.2500  86.0390  10.2120 O 1 RES   0.0000
3763 O  25.0140  83.2880   6.3220 O 1 RES   0.0000
3764 Si  25.0140  83.2880   0.0000 Si 1 RES   0.0000
3765 O  25.0140  84.6630   0.4860 O 1 RES   0.0000
3766 Si  25.0140  86.0390   0.9730 Si 1 RES   0.0000
3767 O  26.2050  82.6000   0.4860 O 1 RES   0.0000
3768 O  23.8230  82.6000   0.4860 O 1 RES   0.0000
3769 O  25.0140  86.0390   2.4310 O 1 RES   0.0000
3770 Si  25.0140  86.0390   3.8900 Si 1 RES   0.0000
3771 O  25.0140  84.6630   4.3770 O 1 RES   0.0000
3772 Si  25.0140  83.2880   4.8630 Si 1 RES   0.0000
3773 O  26.2050  82.6000   4.3770 O 1 RES   0.0000
3774 O  23.8230  82.6000   4.3770 O 1 RES   0.0000
3775 Si  25.0140  83.2880   7.7810 Si 1 RES   0.0000
3776 O  26.2050  82.6000   8.2670 O 1 RES   0.0000
3777 O  23.8230  82.6000   8.2670 O 1 RES   0.0000
3778 O  25.0140  84.6630   8.2670 O 1 RES   0.0000
3779 Si  25.0140  86.0390   8.7530 Si 1 RES   0.0000
3780 O  25.0140  86.0390  10.2120 O 1 RES   0.0000
3781 O  22.6320  87.4140   6.3220 O 1 RES   0.0000
3782 Si  22.6320  87.4140   0.0000 Si 1 RES   0.0000
3783 O  22.6320  88.7890   0.4860 O 1 RES   0.0000
3784 Si  22.6320  90.1650   0.9730 Si 1 RES   0.0000
3785 O  23.8230  86.7260   0.4860 O 1 RES   0.0000
3786 O  21.4410  86.7260   0.4860 O 1 RES   0.0000
3787 O  22.6320  90.1650   2.4310 O 1 RES   0.0000
3788 Si  22.6320  90.1650   3.8900 Si 1 RES   0.0000
3789 O  22.6320  88.7890   4.3770 O 1 RES   0.0000
3790 Si  22.6320  87.4140   4.8630 Si 1 RES   0.0000
3791 O  23.8230  86.7260   4.3770 O 1 RES   0.0000
3792 O  21.4410  86.7260   4.3770 O 1 RES   0.0000
3793 Si  22.6320  87.4140   7.7810 Si 1 RES   0.0000
3794 O  23.8230  86.7260   8.2670 O 1 RES   0.0000
3795 O  21.4410  86.7260   8.2670 O 1 RES   0.0000
3796 O  22.6320  88.7890   8.2670 O 1 RES   0.0000
3797 Si  22.6320  90.1650   8.7530 Si 1 RES   0.0000
3798 O  22.6320  90.1650  10.2120 O 1 RES   0.0000
3799 O  27.3960  87.4140   6.3220 O 1 RES   0.0000
3800 Si  27.3960  87.4140   0.0000 Si 1 RES   0.0000
3801 O  27.3960  88.7890   0.4860 O 1 RES   0.0000
3802 Si  27.3960  90.1650   0.9730 Si 1 RES   0.0000
3803 O  28.5870  86.7260   0.4860 O 1 RES   0.0000
3804 O  26.2050  86.7260   0.4860 O 1 RES   0.0000
3805 O  27.3960  90.1650   2.4310 O 1 RES   0.0000
3806 Si  27.3960  90.1650   3.8900 Si 1 RES   0.0000
3807 O  27.3960  88.7890   4.3770 O 1 RES   0.0000
3808 Si  27.3960  87.4140   4.8630 Si 1 RES   0.0000
3809 O  28.5870  86.7260   4.3770 O 1 RES   0.0000
3810 O  26.2050  86.7260   4.3770 O 1 RES   0.0000
3811 Si  27.3960  87.4140   7.7810 Si 1 RES   0.0000
3812 O  28.5870  86.7260   8.2670 O 1 RES   0.0000
3813 O  26.2050  86.7260   8.2670 O 1 RES   0.0000
3814 O  27.3960  88.7890   8.2670 O 1 RES   0.0000
3815 Si  27.3960  90.1650   8.7530 Si 1 RES   0.0000
3816 O  27.3960  90.1650  10.2120 O 1 RES   0.0000
3817 O  29.7790  83.2880   6.3220 O 1 RES   0.0000
3818 Si  29.7790  83.2880   0.0000 Si 1 RES   0.0000
3819 O  29.7790  84.6630   0.4860 O 1 RES   0.0000
3820 Si  29.7790  86.0390   0.9730 Si 1 RES   0.0000
3821 O  30.9700  82.6000   0.4860 O 1 RES   0.0000
3822 O  28.5870  82.6000   0.4860 O 1 RES   0.0000
3823 O  29.7790  86.0390   2.4310 O 1 RES   0.0000
3824 Si  29.7790  86.0390   3.8900 Si 1 RES   0.0000
3825 O  29.7790  84.6630   4.3770 O 1 RES   0.0000
3826 Si  29.7790  83.2880   4.8630 Si 1 RES   0.0000
3827 O  30.9700  82.6000   4.3770 O 1 RES   0.0000
3828 O  28.5870  82.6000   4.3770 O 1 RES   0.0000
3829 Si  29.7790  83.2880   7.7810 Si 1 RES   0.0000
3830 O  30.9700  82.6000   8.2670 O 1 RES   0.0000
3831 O  28.5870  82.6000   8.2670 O 1 RES   0.0000
3832 O  29.7790  84.6630   8.2670 O 1 RES   0.0000
3833 Si  29.7790  86.0390   8.7530 Si 1 RES   0.0000
3834 O  29.7790  86.0390  10.2120 O 1 RES   0.0000
3835 O  34.5430  83.2880   6.3220 O 1 RES   0.0000
3836 Si  34.5430  83.2880   0.0000 Si 1 RES   0.0000
3837 O  34.5430  84.6630   0.4860 O 1 RES   0.0000
3838 Si  34.5430  86.0390   0.9730 Si 1 RES   0.0000
3839 O  35.7340  82.6000   0.4860 O 1 RES   0.0000
3840 O  33.3520  82.6000   0.4860 O 1 RES   0.0000
3841 O  34.5430  86.0390   2.4310 O 1 RES   0.0000
3842 Si  34.5430  86.0390   3.8900 Si 1 RES   0.0000
3843 O  34.5430  84.6630   4.3770 O 1 RES   0.0000
3844 Si  34.5430  83.2880   4.8630 Si 1 RES   0.0000
3845 O  35.7340  82.6000   4.3770 O 1 RES   0.0000
3846 O  33.3520  82.6000   4.3770 O 1 RES   0.0000
3847 Si  34.5430  83.2880   7.7810 Si 1 RES   0.0000
3848 O  35.7340  82.6000   8.2670 O 1 RES   0.0000
3849 O  33.3520  82.6000   8.2670 O 1 RES   0.0000
3850 O  34.5430  84.6630   8.2670 O 1 RES   0.0000
3851 Si  34.5430  86.0390   8.7530 Si 1 RES   0.0000
3852 O  34.5430  86.0390  10.2120 O 1 RES   0.0000
3853 O  32.1610  87.4140   6.3220 O 1 RES   0.0000
3854 Si  32.1610  87.4140   0.0000 Si 1 RES   0.0000
3855 O  32.1610  88.7890   0.4860 O 1 RES   0.0000
3856 Si  32.1610  90.1650   0.9730 Si 1 RES   0.0000
3857 O  33.3520  86.7260   0.4860 O 1 RES   0.0000
3858 O  30.9700  86.7260   0.4860 O 1 RES   0.0000
3859 O  32.1610  90.1650   2.4310 O 1 RES   0.0000
3860 Si  32.1610  90.1650   3.8900 Si 1 RES   0.0000
3861 O  32.1610  88.7890   4.3770 O 1 RES   0.0000
3862 Si  32.1610  87.4140   4.8630 Si 1 RES   0.0000
3863 O  33.3520  86.7260   4.3770 O 1 RES   0.0000
3864 O  30.9700  86.7260   4.3770 O 1 RES   0.0000
3865 Si  32.1610  87.4140   7.7810 Si 1 RES   0.0000
3866 O  33.3520  86.7260   8.2670 O 1 RES   0.0000
3867 O  30.9700  86.7260   8.2670 O 1 RES   0.0000
3868 O  32.1610  88.7890   8.2670 O 1 RES   0.0000
3869 Si  32.1610  90.1650   8.7530 Si 1 RES   0.0000
3870 O  32.1610  90.1650  10.2120 O 1 RES   0.0000
3871 O  36.9250  87.4140   6.3220 O 1 RES   0.0000
3872 Si  36.9250  87.4140   0.0000 Si 1 RES   0.0000
3873 O  36.9250  88.7890   0.4860 O 1 RES   0.0000
3874 Si  36.9250  90.1650   0.9730 Si 1 RES   0.0000
3875 O  38.1170  86.7260   0.4860 O 1 RES   0.0000
3876 O  35.7340  86.7260   0.4860 O 1 RES   0.0000
3877 O  36.9250  90.1650   2.4310 O 1 RES   0.0000
3878 Si  36.9250  90.1650   3.8900 Si 1 RES   0.0000
3879 O  36.9250  88.7890   4.3770 O 1 RES   0.0000
3880 Si  36.9250  87.4140   4.8630 Si 1 RES   0.0000
3881 O  38.1170  86.7260   4.3770 O 1 RES   0.0000
3882 O  35.7340  86.7260   4.3770 O 1 RES   0.0000
3883 Si  36.9250  87.4140   7.7810 Si 1 RES   0.0000
3884 O  38.1170  86.7260   8.2670 O 1 RES   0.0000
3885 O  35.7340  86.7260   8.2670 O 1 RES   0.0000
3886 O  36.9250  88.7890   8.2670 O 1 RES   0.0000
3887 Si  36.9250  90.1650   8.7530 Si 1 RES   0.0000
3888 O  36.9250  90.1650  10.2120 O 1 RES   0.0000
3889 O  39.3080  83.2880   6.3220 O 1 RES   0.0000
3890 Si  39.3080  83.2880   0.0000 Si 1 RES   0.0000
3891 O  39.3080  84.6630   0.4860 O 1 RES   0.0000
3892 Si  39.3080  86.0390   0.9730 Si 1 RES   0.0000
3893 O  40.4990  82.6000   0.4860 O 1 RES   0.0000
3894 O  38.1170  82.6000   0.4860 O 1 RES   0.0000
3895 O  39.3080  86.0390   2.4310 O 1 RES   0.0000
3896 Si  39.3080  86.0390   3.8900 Si 1 RES   0.0000
3897 O  39.3080  84.6630   4.3770 O 1 RES   0.0000
3898 Si  39.3080  83.2880   4.8630 Si 1 RES   0.0000
3899 O  40.4990  82.6000   4.3770 O 1 RES   0.0000
3900 O  38.1170  82.6000   4.3770 O 1 RES   0.0000
3901 Si  39.3080  83.2880   7.7810 Si 1 RES   0.0000
3902 O  40.4990  82.6000   8.2670 O 1 RES   0.0000
3903 O  38.1170  82.6000   8.2670 O 1 RES   0.0000
3904 O  39.3080  84.6630   8.2670 O 1 RES   0.0000
3905 Si  39.3080  86.0390   8.7530 Si 1 RES   0.0000
3906 O  39.3080  86.0390  10.2120 O 1 RES   0.0000
3907 O  44.0720  83.2880   6.3220 O 1 RES   0.0000
3908 Si  44.0720  83.2880   0.0000 Si 1 RES   0.0000
3909 O  44.0720  84.6630   0.4860 O 1 RES   0.0000
3910 Si  44.0720  86.0390   0.9730 Si 1 RES   0.0000
3911 O  45.2640  82.6000   0.4860 O 1 RES   0.0000
3912 O  42.8810  82.6000   0.4860 O 1 RES   0.0000
3913 O  44.0720  86.0390   2.4310 O 1 RES   0.0000
3914 Si  44.0720  86.0390   3.8900 Si 1 RES   0.0000
3915 O  44.0720  84.6630   4.3770 O 1 RES   0.0000
3916 Si  44.0720  83.2880   4.8630 Si 1 RES   0.0000
3917 O  45.2640  82.6000   4.3770 O 1 RES   0.0000
3918 O  42.8810  82.6000   4.3770 O 1 RES   0.0000
3919 Si  44.0720  83.2880   7.7810 Si 1 RES   0.0000
3920 O  45.2640  82.6000   8.2670 O 1 RES   0.0000
3921 O  42.8810  82.6000   8.2670 O 1 RES   0.0000
3922 O  44.0720  84.6630   8.2670 O 1 RES   0.0000
3923 Si  44.0720  86.0390   8.7530 Si 1 RES   0.0000
3924 O  44.0720  86.0390  10.2120 O 1 RES   0.0000
3925 O  41.6900  87.4140   6.3220 O 1 RES   0.0000
3926 Si  41.6900  87.4140   0.0000 Si 1 RES   0.0000
3927 O  41.6900  88.7890   0.4860 O 1 RES   0.0000
3928 Si  41.6900  90.1650   0.9730 Si 1 RES   0.0000
3929 O  42.8810  86.7260   0.4860 O 1 RES   0.0000
3930 O  40.4990  86.7260   0.4860 O 1 RES   0.0000
3931 O  41.6900  90.1650   2.4310 O 1 RES   0.0000
3932 Si  41.6900  90.1650   3.8900 Si 1 RES   0.0000
3933 O  41.6900  88.7890   4.3770 O 1 RES   0.0000
3934 Si  41.6900  87.4140   4.8630 Si 1 RES   0.0000
3935 O  42.8810  86.7260   4.3770 O 1 RES   0.0000
3936 O  40.4990  86.7260   4.3770 O 1 RES   0.0000
3937 Si  41.6900  87.4140   7.7810 Si 1 RES   0.0000
3938 O  42.8810  86.7260   8.2670 O 1 RES   0.0000
3939 O  40.4990  86.7260   8.2670 O 1 RES   0.0000
3940 O  41.6900  88.7890   8.2670 O 1 RES   0.0000
3941 Si  41.6900  90.1650   8.7530 Si 1 RES   0.0000
3942 O  41.6900  90.1650  10.2120 O 1 RES   0.0000
3943 O  46.4550  87.4140   6.3220 O 1 RES   0.0000
3944 Si  46.4550  87.4140   0.0000 Si 1 RES   0.0000
3945 O  46.4550  88.7890   0.4860 O 1 RES   0.0000
3946 Si  46.4550  90.1650   0.9730 Si 1 RES   0.0000
3947 O  -0.0430  86.7260   0.4860 O 1 RES   0.0000
3948 O  45.2640  86.7260   0.4860 O 1 RES   0.0000
3949 O  46.4550  90.1650   2.4310 O 1 RES   0.0000
3950 Si  46.4550  90.1650   3.8900 Si 1 RES   0.0000
3951 O  46.4550  88.7890   4.3770 O 1 RES   0.0000
3952 Si  46.4550  87.4140   4.8630 Si 1 RES   0.0000
3953 O  -0.0430  86.7260   4.3770 O 1 RES   0.0000
3954 O  45.2640  86.7260   4.3770 O 1 RES   0.0000
3955 Si  46.4550  87.4140   7.7810 Si 1 RES   0.0000
3956 O  -0.0430  86.7260   8.2670 O 1 RES   0.0000
3957 O  45.2640  86.7260   8.2670 O 1 RES   0.0000
3958 O  46.4550  88.7890   8.2670 O 1 RES   0.0000
3959 Si  46.4550  90.1650   8.7530 Si 1 RES   0.0000
3960 O  46.4550  90.1650  10.2120 O 1 RES   0.0000
3961 O   1.1910  91.5400   6.3220 O 1 RES   0.0000
3962 Si   1.1910  91.5400   0.0000 Si 1 RES   0.0000
3963 O   1.1910  92.9160   0.4860 O 1 RES   0.0000
3964 Si   1.1910  94.2910   0.9730 Si 1 RES   0.0000
3965 O   2.3820  90.8530   0.4860 O 1 RES   0.0000
3966 O   0.0000  90.8530   0.4860 O 1 RES   0.0000
3967 O   1.1910  94.2910   2.4310 O 1 RES   0.0000
3968 Si   1.1910  94.2910   3.8900 Si 1 RES   0.0000
3969 O   1.1910  92.9160   4.3770 O 1 RES   0.0000
3970 Si   1.1910  91.5400   4.8630 Si 1 RES   0.0000
3971 O   2.3820  90.8530   4.3770 O 1 RES   0.0000
3972 O   0.0000  90.8530   4.3770 O 1 RES   0.0000
3973 Si   1.1910  91.5400   7.7810 Si 1 RES   0.0000
3974 O   2.3820  90.8530   8.2670 O 1 RES   0.0000
3975 O   0.0000  90.8530   8.2670 O 1 RES   0.0000
3976 O   1.1910  92.9160   8.2670 O 1 RES   0.0000
3977 Si   1.1910  94.2910   8.7530 Si 1 RES   0.0000
3978 O   1.1910  94.2910  10.2120 O 1 RES   0.0000
3979 O   5.9560  91.5400   6.3220 O 1 RES   0.0000
3980 Si   5.9560  91.5400   0.0000 Si 1 RES   0.0000
3981 O   5.9560  92.9160   0.4860 O 1 RES   0.0000
3982 Si   5.9560  94.2910   0.9730 Si 1 RES   0.0000
3983 O   7.1470  90.8530   0.4860 O 1 RES   0.0000
3984 O   4.7650  90.8530   0.4860 O 1 RES   0.0000
3985 O   5.9560  94.2910   2.4310 O 1 RES   0.0000
3986 Si   5.9560  94.2910   3.8900 Si 1 RES   0.0000
3987 O   5.9560  92.9160   4.3770 O 1 RES   0.0000
3988 Si   5.9560  91.5400   4.8630 Si 1 RES   0.0000
3989 O   7.1470  90.8530   4.3770 O 1 RES   0.0000
3990 O   4.7650  90.8530   4.3770 O 1 RES   0.0000
3991 Si   5.9560  91.5400   7.7810 Si 1 RES   0.0000
3992 O   7.1470  90.8530   8.2670 O 1 RES   0.0000
3993 O   4.7650  90.8530   8.2670 O 1 RES   0.0000
3994 O   5.9560  92.9160   8.2670 O 1 RES   0.0000
3995 Si   5.9560  94.2910   8.7530 Si 1 RES   0.0000
3996 O   5.9560  94.2910  10.2120 O 1 RES   0.0000
3997 O   3.5730  95.6660   6.3220 O 1 RES   0.0000
3998 Si   3.5730  95.6660   0.0000 Si 1 RES   0.0000
3999 O   3.5730  97.0420   0.4860 O 1 RES   0.0000
4000 Si   3.5730  98.4170   0.9730 Si 1 RES   0.0000
4001 O   4.7650  94.9790   0.4860 O 1 RES   0.0000
4002 O   2.3820  94.9790   0.4860 O 1 RES   0.0000
4003 O   3.5730  98.4170   2.4310 O 1 RES   0.0000
4004 Si   3.5730  98.4170   3.8900 Si 1 RES   0.0000
4005 O   3.5730  97.0420   4.3770 O 1 RES   0.0000
4006 Si   3.5730  95.6660   4.8630 Si 1 RES   0.0000
4007 O   4.7650  94.9790   4.3770 O 1 RES   0.0000
4008 O   2.3820  94.9790   4.3770 O 1 RES   0.0000
4009 Si   3.5730  95.6660   7.7810 Si 1 RES   0.0000
4010 O   4.7650  94.9790   8.2670 O 1 RES   0.0000
4011 O   2.3820  94.9790   8.2670 O 1 RES   0.0000
4012 O   3.5730  97.0420   8.2670 O 1 RES   0.0000
4013 Si   3.5730  98.4170   8.7530 Si 1 RES   0.0000
4014 O   3.5730  98.4170  10.2120 O 1 RES   0.0000
4015 O   8.3380  95.6660   6.3220 O 1 RES   0.0000
4016 Si   8.3380  95.6660   0.0000 Si 1 RES   0.0000
4017 O   8.3380  97.0420   0.4860 O 1 RES   0.0000
4018 Si   8.3380  98.4170   0.9730 Si 1 RES   0.0000
4019 O   9.5290  94.9790   0.4860 O 1 RES   0.0000
4020 O   7.1470  94.9790   0.4860 O 1 RES   0.0000
4021 O   8.3380  98.4170   2.4310 O 1 RES   0.0000
4022 Si   8.3380  98.4170   3.8900 Si 1 RES   0.0000
4023 O   8.3380  97.0420   4.3770 O 1 RES   0.0000
4024 Si   8.3380  95.6660   4.8630 Si 1 RES   0.0000
4025 O   9.5290  94.9790   4.3770 O 1 RES   0.0000
4026 O   7.1470  94.9790   4.3770 O 1 RES   0.0000
4027 Si   8.3380  95.6660   7.7810 Si 1 RES   0.0000
4028 O   9.5290  94.9790   8.2670 O 1 RES   0.0000
4029 O   7.1470  94.9790   8.2670 O 1 RES   0.0000
4030 O   8.3380  97.0420   8.2670 O 1 RES   0.0000
4031 Si   8.3380  98.4170   8.7530 Si 1 RES   0.0000
4032 O   8.3380  98.4170  10.2120 O 1 RES   0.0000
4033 O  10.7200  91.5400   6.3220 O 1 RES   0.0000
4034 Si  10.7200  91.5400   0.0000 Si 1 RES   0.0000
4035 O  10.7200  92.9160   0.4860 O 1 RES   0.0000
4036 Si  10.7200  94.2910   0.9730 Si 1 RES   0.0000
4037 O  11.9120  90.8530   0.4860 O 1 RES   0.0000
4038 O   9.5290  90.8530   0.4860 O 1 RES   0.0000
4039 O  10.7200  94.2910   2.4310 O 1 RES   0.0000
4040 Si  10.7200  94.2910   3.8900 Si 1 RES   0.0000
4041 O  10.7200  92.9160   4.3770 O 1 RES   0.0000
4042 Si  10.7200  91.5400   4.8630 Si 1 RES   0.0000
4043 O  11.9120  90.8530   4.3770 O 1 RES   0.0000
4044 O   9.5290  90.8530   4.3770 O 1 RES   0.0000
4045 Si  10.7200  91.5400   7.7810 Si 1 RES   0.0000
4046 O  11.9120  90.8530   8.2670 O 1 RES   0.0000
4047 O   9.5290  90.8530   8.2670 O 1 RES   0.0000
4048 O  10.7200  92.9160   8.2670 O 1 RES   0.0000
4049 Si  10.7200  94.2910   8.7530 Si 1 RES   0.0000
4050 O  10.7200  94.2910  10.2120 O 1 RES   0.0000
4051 O  15.4850  91.5400   6.3220 O 1 RES   0.0000
4052 Si  15.4850  91.5400   0.0000 Si 1 RES   0.0000
4053 O  15.4850  92.9160   0.4860 O 1 RES   0.0000
4054 Si  15.4850  94.2910   0.9730 Si 1 RES   0.0000
4055 O  16.6760  90.8530   0.4860 O 1 RES   0.0000
4056 O  14.2940  90.8530   0.4860 O 1 RES   0.0000
4057 O  15.4850  94.2910   2.4310 O 1 RES   0.0000
4058 Si  15.4850  94.2910   3.8900 Si 1 RES   0.0000
4059 O  15.4850  92.9160   4.3770 O 1 RES   0.0000
4060 Si  15.4850  91.5400   4.8630 Si 1 RES   0.0000
4061 O  16.6760  90.8530   4.3770 O 1 RES   0.0000
4062 O  14.2940  90.8530   4.3770 O 1 RES   0.0000
4063 Si  15.4850  91.5400   7.7810 Si 1 RES   0.0000
4064 O  16.6760  90.8530   8.2670 O 1 RES   0.0000
4065 O  14.2940  90.8530   8.2670 O 1 RES   0.0000
4066 O  15.4850  92.9160   8.2670 O 1 RES   0.0000
4067 Si  15.4850  94.2910   8.7530 Si 1 RES   0.0000
4068 O  15.4850  94.2910  10.2120 O 1 RES   0.0000
4069 O  13.1030  95.6660   6.3220 O 1 RES   0.0000
4070 Si  13.1030  95.6660   0.0000 Si 1 RES   0.0000
4071 O  13.1030  97.0420   0.4860 O 1 RES   0.0000
4072 Si  13.1030  98.4170   0.9730 Si 1 RES   0.0000
4073 O  14.2940  94.9790   0.4860 O 1 RES   0.0000
4074 O  11.9120  94.9790   0.4860 O 1 RES   0.0000
4075 O  13.1030  98.4170   2.4310 O 1 RES   0.0000
4076 Si  13.1030  98.4170   3.8900 Si 1 RES   0.0000
4077 O  13.1030  97.0420   4.3770 O 1 RES   0.0000
4078 Si  13.1030  95.6660   4.8630 Si 1 RES   0.0000
4079 O  14.2940  94.9790   4.3770 O 1 RES   0.0000
4080 O  11.9120  94.9790   4.3770 O 1 RES   0.0000
4081 Si  13.1030  95.6660   7.7810 Si 1 RES   0.0000
4082 O  14.2940  94.9790   8.2670 O 1 RES   0.0000
4083 O  11.9120  94.9790   8.2670 O 1 RES   0.0000
4084 O  13.1030  97.0420   8.2670 O 1 RES   0.0000
4085 Si  13.1030  98.4170   8.7530 Si 1 RES   0.0000
4086 O  13.1030  98.4170  10.2120 O 1 RES   0.0000
4087 O  17.8670  95.6660   6.3220 O 1 RES   0.0000
4088 Si  17.8670  95.6660   0.0000 Si 1 RES   0.0000
4089 O  17.8670  97.0420   0.4860 O 1 RES   0.0000
4090 Si  17.8670  98.4170   0.9730 Si 1 RES   0.0000
4091 O  19.0580  94.9790   0.4860 O 1 RES   0.0000
4092 O  16.6760  94.9790   0.4860 O 1 RES   0.0000
4093 O  17.8670  98.4170   2.4310 O 1 RES   0.0000
4094 Si  17.8670  98.4170   3.8900 Si 1 RES   0.0000
4095 O  17.8670  97.0420   4.3770 O 1 RES   0.0000
4096 Si  17.8670  95.6660   4.8630 Si 1 RES   0.0000
4097 O  19.0580  94.9790   4.3770 O 1 RES   0.0000
4098 O  16.6760  94.9790   4.3770 O 1 RES   0.0000
4099 Si  17.8670  95.6660   7.7810 Si 1 RES   0.0000
4100 O  19.0580  94.9790   8.2670 O 1 RES   0.0000
4101 O  16.6760  94.9790   8.2670 O 1 RES   0.0000
4102 O  17.8670  97.0420   8.2670 O 1 RES   0.0000
4103 Si  17.8670  98.4170   8.7530 Si 1 RES   0.0000
4104 O  17.8670  98.4170  10.2120 O 1 RES   0.0000
4105 O  20.2500  91.5400   6.3220 O 1 RES   0.0000
4106 Si  20.2500  91.5400   0.0000 Si 1 RES   0.0000
4107 O  20.2500  92.9160   0.4860 O 1 RES   0.0000
4108 Si  20.2500  94.2910   0.9730 Si 1 RES   0.0000
4109 O  21.4410  90.8530   0.4860 O 1 RES   0.0000
4110 O  19.0580  90.8530   0.4860 O 1 RES   0.0000
4111 O  20.2500  94.2910   2.4310 O 1 RES   0.0000
4112 Si  20.2500  94.2910   3.8900 Si 1 RES   0.0000
4113 O  20.2500  92.9160   4.3770 O 1 RES   0.0000
4114 Si  20.2500  91.5400   4.8630 Si 1 RES   0.0000
4115 O  21.4410  90.8530   4.3770 O 1 RES   0.0000
4116 O  19.0580  90.8530   4.3770 O 1 RES   0.0000
4117 Si  20.2500  91.5400   7.7810 Si 1 RES   0.0000
4118 O  21.4410  90.8530   8.2670 O 1 RES   0.0000
4119 O  19.0580  90.8530   8.2670 O 1 RES   0.0000
4120 O  20.2500  92.9160   8.2670 O 1 RES   0.0000
4121 Si  20.2500  94.2910   8.7530 Si 1 RES   0.0000
4122 O  20.2500  94.2910  10.2120 O 1 RES   0.0000
4123 O  25.0140  91.5400   6.3220 O 1 RES   0.0000
4124 Si  25.0140  91.5400   0.0000 Si 1 RES   0.0000
4125 O  25.0140  92.9160   0.4860 O 1 RES   0.0000
4126 Si  25.0140  94.2910   0.9730 Si 1 RES   0.0000
4127 O  26.2050  90.8530   0.4860 O 1 RES   0.0000
4128 O  23.8230  90.8530   0.4860 O 1 RES   0.0000
4129 O  25.0140  94.2910   2.4310 O 1 RES   0.0000
4130 Si  25.0140  94.2910   3.8900 Si 1 RES   0.0000
4131 O  25.0140  92.9160   4.3770 O 1 RES   0.0000
4132 Si  25.0140  91.5400   4.8630 Si 1 RES   0.0000
4133 O  26.2050  90.8530   4.3770 O 1 RES   0.0000
4134 O  23.8230  90.8530   4.3770 O 1 RES   0.0000
4135 Si  25.0140  91.5400   7.7810 Si 1 RES   0.0000
4136 O  26.2050  90.8530   8.2670 O 1 RES   0.0000
4137 O  23.8230  90.8530   8.2670 O 1 RES   0.0000
4138 O  25.0140  92.9160   8.2670 O 1 RES   0.0000
4139 Si  25.0140  94.2910   8.7530 Si 1 RES   0.0000
4140 O  25.0140  94.2910  10.2120 O 1 RES   0.0000
4141 O  22.6320  95.6660   6.3220 O 1 RES   0.0000
4142 Si  22.6320  95.6660   0.0000 Si 1 RES   0.0000
4143 O  22.6320  97.0420   0.4860 O 1 RES   0.0000
4144 Si  22.6320  98.4170   0.9730 Si 1 RES   0.0000
4145 O  23.8230  94.9790   0.4860 O 1 RES   0.0000
4146 O  21.4410  94.9790   0.4860 O 1 RES   0.0000
4147 O  22.6320  98.4170   2.4310 O 1 RES   0.0000
4148 Si  22.6320  98.4170   3.8900 Si 1 RES   0.0000
4149 O  22.6320  97.0420   4.3770 O 1 RES   0.0000
4150 Si  22.6320  95.6660   4.8630 Si 1 RES   0.0000
4151 O  23.8230  94.9790   4.3770 O 1 RES   0.0000
4152 O  21.4410  94.9790   4.3770 O 1 RES   0.0000
4153 Si  22.6320  95.6660   7.7810 Si 1 RES   0.0000
4154 O  23.8230  94.9790   8.2670 O 1 RES   0.0000
4155 O  21.4410  94.9790   8.2670 O 1 RES   0.0000
4156 O  22.6320  97.0420   8.2670 O 1 RES   0.0000
4157 Si  22.6320  98.4170   8.7530 Si 1 RES   0.0000
4158 O  22.6320  98.4170  10.2120 O 1 RES   0.0000
4159 O  27.3960  95.6660   6.3220 O 1 RES   0.0000
4160 Si  27.3960  95.6660   0.0000 Si 1 RES   0.0000
4161 O  27.3960  97.0420   0.4860 O 1 RES   0.0000
4162 Si  27.3960  98.4170   0.9730 Si 1 RES   0.0000
4163 O  28.5870  94.9790   0.4860 O 1 RES   0.0000
4164 O  26.2050  94.9790   0.4860 O 1 RES   0.0000
4165 O  27.3960  98.4170   2.4310 O 1 RES   0.0000
4166 Si  27.3960  98.4170   3.8900 Si 1 RES   0.0000
4167 O  27.3960  97.0420   4.3770 O 1 RES   0.0000
4168 Si  27.3960  95.6660   4.8630 Si 1 RES   0.0000
4169 O  28.5870  94.9790   4.3770 O 1 RES   0.0000
4170 O  26.2050  94.9790   4.3770 O 1 RES   0.0000
4171 Si  27.3960  95.6660   7.7810 Si 1 RES   0.0000
4172 O  28.5870  94.9790   8.2670 O 1 RES   0.0000
4173 O  26.2050  94.9790   8.2670 O 1 RES   0.0000
4174 O  27.3960  97.0420   8.2670 O 1 RES   0.0000
4175 Si  27.3960  98.4170   8.7530 Si 1 RES   0.0000
4176 O  27.3960  98.4170  10.2120 O 1 RES   0.0000
4177 O  29.7790  91.5400   6.3220 O 1 RES   0.0000
4178 Si  29.7790  91.5400   0.0000 Si 1 RES   0.0000
4179 O  29.7790  92.9160   0.4860 O 1 RES   0.0000
4180 Si  29.7790  94.2910   0.9730 Si 1 RES   0.0000
4181 O  30.9700  90.8530   0.4860 O 1 RES   0.0000
4182 O  28.5870  90.8530   0.4860 O 1 RES   0.0000
4183 O  29.7790  94.2910   2.4310 O 1 RES   0.0000
4184 Si  29.7790  94.2910   3.8900 Si 1 RES   0.0000
4185 O  29.7790  92.9160   4.3770 O 1 RES   0.0000
4186 Si  29.7790  91.5400   4.8630 Si 1 RES   0.0000
4187 O  30.9700  90.8530   4.3770 O 1 RES   0.0000
4188 O  28.5870  90.8530   4.3770 O 1 RES   0.0000
4189 Si  29.7790  91.5400   7.7810 Si 1 RES   0.0000
4190 O  30.9700  90.8530   8.2670 O 1 RES   0.0000
4191 O  28.5870  90.8530   8.2670 O 1 RES   0.0000
4192 O  29.7790  92.9160   8.2670 O 1 RES   0.0000
4193 Si  29.7790  94.2910   8.7530 Si 1 RES   0.0000
4194 O  29.7790  94.2910  10.2120 O 1 RES   0.0000
4195 O  34.5430  91.5400   6.3220 O 1 RES   0.0000
4196 Si  34.5430  91.5400   0.0000 Si 1 RES   0.0000
4197 O  34.5430  92.9160   0.4860 O 1 RES   0.0000
4198 Si  34.5430  94.2910   0.9730 Si 1 RES   0.0000
4199 O  35.7340  90.8530   0.4860 O 1 RES   0.0000
4200 O  33.3520  90.8530   0.4860 O 1 RES   0.0000
4201 O  34.5430  94.2910   2.4310 O 1 RES   0.0000
4202 Si  34.5430  94.2910   3.8900 Si 1 RES   0.0000
4203 O  34.5430  92.9160   4.3770 O 1 RES   0.0000
4204 Si  34.5430  91.5400   4.8630 Si 1 RES   0.0000
4205 O  35.7340  90.8530   4.3770 O 1 RES   0.0000
4206 O  33.3520  90.8530   4.3770 O 1 RES   0.0000
4207 Si  34.5430  91.5400   7.7810 Si 1 RES   0.0000
4208 O  35.7340  90.8530   8.2670 O 1 RES   0.0000
4209 O  33.3520  90.8530   8.2670 O 1 RES   0.0000
4210 O  34.5430  92.9160   8.2670 O 1 RES   0.0000
4211 Si  34.5430  94.2910   8.7530 Si 1 RES   0.0000
4212 O  34.5430  94.2910  10.2120 O 1 RES   0.0000
4213 O  32.1610  95.6660   6.3220 O 1 RES   0.0000
4214 Si  32.1610  95.6660   0.0000 Si 1 RES   0.0000
4215 O  32.1610  97.0420   0.4860 O 1 RES   0.0000
4216 Si  32.1610  98.4170   0.9730 Si 1 RES   0.0000
4217 O  33.3520  94.9790   0.4860 O 1 RES   0.0000
4218 O  30.9700  94.9790   0.4860 O 1 RES   0.0000
4219 O  32.1610  98.4170   2.4310 O 1 RES   0.0000
4220 Si  32.1610  98.4170   3.8900 Si 1 RES   0.0000
4221 O  32.1610  97.0420   4.3770 O 1 RES   0.0000
4222 Si  32.1610  95.6660   4.8630 Si 1 RES   0.0000
4223 O  33.3520  94.9790   4.3770 O 1 RES   0.0000
4224 O  30.9700  94.9790   4.3770 O 1 RES   0.0000
4225 Si  32.1610  95.6660   7.7810 Si 1 RES   0.0000
4226 O  33.3520  94.9790   8.2670 O 1 RES   0.0000
4227 O  30.9700  94.9790   8.2670 O 1 RES   0.0000
4228 O  32.1610  97.0420   8.2670 O 1 RES   0.0000
4229 Si  32.1610  98.4170   8.7530 Si 1 RES   0.0000
4230 O  32.1610  98.4170  10.2120 O 1 RES   0.0000
4231 O  36.9250  95.6660   6.3220 O 1 RES   0.0000
4232 Si  36.9250  95.6660   0.0000 Si 1 RES   0.0000
4233 O  36.9250  97.0420   0.4860 O 1 RES   0.0000
4234 Si  36.9250  98.4170   0.9730 Si 1 RES   0.0000
4235 O  38.1170  94.9790   0.4860 O 1 RES   0.0000
4236 O  35.7340  94.9790   0.4860 O 1 RES   0.0000
4237 O  36.9250  98.4170   2.4310 O 1 RES   0.0000
4238 Si  36.9250  98.4170   3.8900 Si 1 RES   0.0000
4239 O  36.9250  97.0420   4.3770 O 1 RES   0.0000
4240 Si  36.9250  95.6660   4.8630 Si 1 RES   0.0000
4241 O  38.1170  94.9790   4.3770 O 1 RES   0.0000
4242 O  35.7340  94.9790   4.3770 O 1 RES   0.0000
4243 Si  36.9250  95.6660   7.7810 Si 1 RES   0.0000
4244 O  38.1170  94.9790   8.2670 O 1 RES   0.0000
4245 O  35.7340  94.9790   8.2670 O 1 RES   0.0000
4246 O  36.9250  97.0420   8.2670 O 1 RES   0.0000
4247 Si  36.9250  98.4170   8.7530 Si 1 RES   0.0000
4248 O  36.9250  98.4170  10.2120 O 1 RES   0.0000
4249 O  39.3080  91.5400   6.3220 O 1 RES   0.0000
4250 Si  39.3080  91.5400   0.0000 Si 1 RES   0.0000
4251 O  39.3080  92.9160   0.4860 O 1 RES   0.0000
4252 Si  39.3080  94.2910   0.9730 Si 1 RES   0.0000
4253 O  40.4990  90.8530   0.4860 O 1 RES   0.0000
4254 O  38.1170  90.8530   0.4860 O 1 RES   0.0000
4255 O  39.3080  94.2910   2.4310 O 1 RES   0.0000
4256 Si  39.3080  94.2910   3.8900 Si 1 RES   0.0000
4257 O  39.3080  92.9160   4.3770 O 1 RES   0.0000
4258 Si  39.3080  91.5400   4.8630 Si 1 RES   0.0000
4259 O  40.4990  90.8530   4.3770 O 1 RES   0.0000
4260 O  38.1170  90.8530   4.3770 O 1 RES   0.0000
4261 Si  39.3080  91.5400   7.7810 Si 1 RES   0.0000
4262 O  40.4990  90.8530   8.2670 O 1 RES   0.0000
4263 O  38.1170  90.8530   8.2670 O 1 RES   0.0000
4264 O  39.3080  92.9160   8.2670 O 1 RES   0.0000
4265 Si  39.3080  94.2910   8.7530 Si 1 RES   0.0000
4266 O  39.3080  94.2910  10.2120 O 1 RES   0.0000
4267 O  44.0720  91.5400   6.3220 O 1 RES   0.0000
4268 Si  44.0720  91.5400   0.0000 Si 1 RES   0.0000
4269 O  44.0720  92.9160   0.4860 O 1 RES   0.0000
4270 Si  44.0720  94.2910   0.9730 Si 1 RES   0.0000
4271 O  45.2640  90.8530   0.4860 O 1 RES   0.0000
4272 O  42.8810  90.8530   0.4860 O 1 RES   0.0000
4273 O  44.0720  94.2910   2.4310 O 1 RES   0.0000
4274 Si  44.0720  94.2910   3.8900 Si 1 RES   0.0000
4275 O  44.0720  92.9160   4.3770 O 1 RES   0.0000
4276 Si  44.0720  91.5400   4.8630 Si 1 RES   0.0000
4277 O  45.2640  90.8530   4.3770 O 1 RES   0.0000
4278 O  42.8810  90.8530   4.3770 O 1 RES   0.0000
4279 Si  44.0720  91.5400   7.7810 Si 1 RES   0.0000
4280 O  45.2640  90.8530   8.2670 O 1 RES   0.0000
4281 O  42.8810  90.8530   8.2670 O 1 RES   0.0000
4282 O  44.0720  92.9160   8.2670 O 1 RES   0.0000
4283 Si  44.0720  94.2910   8.7530 Si 1 RES   0.0000
4284 O  44.0720  94.2910  10.2120 O 1 RES   0.0000
4285 O  41.6900  95.6660   6.3220 O 1 RES   0.0000
4286 Si  41.6900  95.6660   0.0000 Si 1 RES   0.0000
4287 O  41.6900  97.0420   0.4860 O 1 RES   0.0000
4288 Si  41.6900  98.4170   0.9730 Si 1 RES   0.0000
4289 O  42.8810  94.9790   0.4860 O 1 RES   0.0000
4290 O  40.4990  94.9790   0.4860 O 1 RES   0.0000
4291 O  41.6900  98.4170   2.4310 O 1 RES   0.0000
4292 Si  41.6900  98.4170   3.8900 Si 1 RES   0.0000
4293 O  41.6900  97.0420   4.3770 O 1 RES   0.0000
4294 Si  41.6900  95.6660   4.8630 Si 1 RES   0.0000
4295 O  42.8810  94.9790   4.3770 O 1 RES   0.0000
4296 O  40.4990  94.9790   4.3770 O 1 RES   0.0000
4297 Si  41.6900  95.6660   7.7810 Si 1 RES   0.0000
4298 O  42.8810  94.9790   8.2670 O 1 RES   0.0000
4299 O  40.4990  94.9790   8.2670 O 1 RES   0.0000
4300 O  41.6900  97.0420   8.2670 O 1 RES   0.0000
4301 Si  41.6900  98.4170   8.7530 Si 1 RES   0.0000
4302 O  41.6900  98.4170  10.2120 O 1 RES   0.0000
4303 O  46.4550  95.6660   6.3220 O 1 RES   0.0000
4304 Si  46.4550  95.6660   0.0000 Si 1 RES   0.0000
4305 O  46.4550  97.0420   0.4860 O 1 RES   0.0000
4306 Si  46.4550  98.4170   0.9730 Si 1 RES   0.0000
4307 O  -0.0430  94.9790   0.4860 O 1 RES   0.0000
4308 O  45.2640  94.9790   0.4860 O 1 RES   0.0000
4309 O  46.4550  98.4170   2.4310 O 1 RES   0.0000
4310 Si  46.4550  98.4170   3.8900 Si 1 RES   0.0000
4311 O  46.4550  97.0420   4.3770 O 1 RES   0.0000
4312 Si  46.4550  95.6660   4.8630 Si 1 RES   0.0000
4313 O  -0.0430  94.9790   4.3770 O 1 RES   0.0000
4314 O  45.2640  94.9790   4.3770 O 1 RES   0.0000
4315 Si  46.4550  95.6660   7.7810 Si 1 RES   0.0000
4316 O  -0.0430  94.9790   8.2670 O 1 RES   0.0000
4317 O  45.2640  94.9790   8.2670 O 1 RES   0.0000
4318 O  46.4550  97.0420   8.2670 O 1 RES   0.0000
4319 Si  46.4550  98.4170   8.7530 Si 1 RES   0.0000
4320 O  46.4550  98.4170  10.2120 O 1 RES   0.0000
4321 O   1.1910  99.7930   6.3220 O 1 RES   0.0000
4322 Si   1.1910  99.7930   0.0000 Si 1 RES   0.0000
4323 O   1.1910 101.1680   0.4860 O 1 RES   0.0000
4324 Si   1.1910 102.5440   0.9730 Si 1 RES   0.0000
4325 O   2.3820  99.1050   0.4860 O 1 RES   0.0000
4326 O   0.0000  99.1050   0.4860 O 1 RES   0.0000
4327 O   1.1910 102.5440   2.4310 O 1 RES   0.0000
4328 Si   1.1910 102.5440   3.8900 Si 1 RES   0.0000
4329 O   1.1910 101.1680   4.3770 O 1 RES   0.0000
4330 Si   1.1910  99.7930   4.8630 Si 1 RES   0.0000
4331 O   2.3820  99.1050   4.3770 O 1 RES   0.0000
4332 O   0.0000  99.1050   4.3770 O 1 RES   0.0000
4333 Si   1.1910  99.7930   7.7810 Si 1 RES   0.0000
4334 O   2.3820  99.1050   8.2670 O 1 RES   0.0000
4335 O   0.0000  99.1050   8.2670 O 1 RES   0.0000
4336 O   1.1910 101.1680   8.2670 O 1 RES   0.0000
4337 Si   1.1910 102.5440   8.7530 Si 1 RES   0.0000
4338 O   1.1910 102.5440  10.2120 O 1 RES   0.0000
4339 O   5.9560  99.7930   6.3220 O 1 RES   0.0000
4340 Si   5.9560  99.7930   0.0000 Si 1 RES   0.0000
4341 O   5.9560 101.1680   0.4860 O 1 RES   0.0000
4342 Si   5.9560 102.5440   0.9730 Si 1 RES   0.0000
4343 O   7.1470  99.1050   0.4860 O 1 RES   0.0000
4344 O   4.7650  99.1050   0.4860 O 1 RES   0.0000
4345 O   5.9560 102.5440   2.4310 O 1 RES   0.0000
4346 Si   5.9560 102.5440   3.8900 Si 1 RES   0.0000
4347 O   5.9560 101.1680   4.3770 O 1 RES   0.0000
4348 Si   5.9560  99.7930   4.8630 Si 1 RES   0.0000
4349 O   7.1470  99.1050   4.3770 O 1 RES   0.0000
4350 O   4.7650  99.1050   4.3770 O 1 RES   0.0000
4351 Si   5.9560  99.7930   7.7810 Si 1 RES   0.0000
4352 O   7.1470  99.1050   8.2670 O 1 RES   0.0000
4353 O   4.7650  99.1050   8.2670 O 1 RES   0.0000
4354 O   5.9560 101.1680   8.2670 O 1 RES   0.0000
4355 Si   5.9560 102.5440   8.7530 Si 1 RES   0.0000
4356 O   5.9560 102.5440  10.2120 O 1 RES   0.0000
4357 O   3.5730 103.9190   6.3220 O 1 RES   0.0000
4358 Si   3.5730 103.9190   0.0000 Si 1 RES   0.0000
4359 O   3.5730 105.2940   0.4860 O 1 RES   0.0000
4360 Si   3.5730 106.6700   0.9730 Si 1 RES   0.0000
4361 O   4.7650 103.2310   0.4860 O 1 RES   0.0000
4362 O   2.3820 103.2310   0.4860 O 1 RES   0.0000
4363 O   3.5730 106.6700   2.4310 O 1 RES   0.0000
4364 Si   3.5730 106.6700   3.8900 Si 1 RES   0.0000
4365 O   3.5730 105.2940   4.3770 O 1 RES   0.0000
4366 Si   3.5730 103.9190   4.8630 Si 1 RES   0.0000
4367 O   4.7650 103.2310   4.3770 O 1 RES   0.0000
4368 O   2.3820 103.2310   4.3770 O 1 RES   0.0000
4369 Si   3.5730 103.9190   7.7810 Si 1 RES   0.0000
4370 O   4.7650 103.2310   8.2670 O 1 RES   0.0000
4371 O   2.3820 103.2310   8.2670 O 1 RES   0.0000
4372 O   3.5730 105.2940   8.2670 O 1 RES   0.0000
4373 Si   3.5730 106.6700   8.7530 Si 1 RES   0.0000
4374 O   3.5730 106.6700  10.2120 O 1 RES   0.0000
4375 O   8.3380 103.9190   6.3220 O 1 RES   0.0000
4376 Si   8.3380 103.9190   0.0000 Si 1 RES   0.0000
4377 O   8.3380 105.2940   0.4860 O 1 RES   0.0000
4378 Si   8.3380 106.6700   0.9730 Si 1 RES   0.0000
4379 O   9.5290 103.2310   0.4860 O 1 RES   0.0000
4380 O   7.1470 103.2310   0.4860 O 1 RES   0.0000
4381 O   8.3380 106.6700   2.4310 O 1 RES   0.0000
4382 Si   8.3380 106.6700   3.8900 Si 1 RES   0.0000
4383 O   8.3380 105.2940   4.3770 O 1 RES   0.0000
4384 Si   8.3380 103.9190   4.8630 Si 1 RES   0.0000
4385 O   9.5290 103.2310   4.3770 O 1 RES   0.0000
4386 O   7.1470 103.2310   4.3770 O 1 RES   0.0000
4387 Si   8.3380 103.9190   7.7810 Si 1 RES   0.0000
4388 O   9.5290 103.2310   8.2670 O 1 RES   0.0000
4389 O   7.1470 103.2310   8.2670 O 1 RES   0.0000
4390 O   8.3380 105.2940   8.2670 O 1 RES   0.0000
4391 Si   8.3380 106.6700   8.7530 Si 1 RES   0.0000
4392 O   8.3380 106.6700  10.2120 O 1 RES   0.0000
4393 O  10.7200  99.7930   6.3220 O 1 RES   0.0000
4394 Si  10.7200  99.7930   0.0000 Si 1 RES   0.0000
4395 O  10.7200 101.1680   0.4860 O 1 RES   0.0000
4396 Si  10.7200 102.5440   0.9730 Si 1 RES   0.0000
4397 O  11.9120  99.1050   0.4860 O 1 RES   0.0000
4398 O   9.5290  99.1050   0.4860 O 1 RES   0.0000
4399 O  10.7200 102.5440   2.4310 O 1 RES   0.0000
4400 Si  10.7200 102.5440   3.8900 Si 1 RES   0.0000
4401 O  10.7200 101.1680   4.3770 O 1 RES   0.0000
4402 Si  10.7200  99.7930   4.8630 Si 1 RES   0.0000
4403 O  11.9120  99.1050   4.3770 O 1 RES   0.0000
4404 O   9.5290  99.1050   4.3770 O 1 RES   0.0000
4405 Si  10.7200  99.7930   7.7810 Si 1 RES   0.0000
4406 O  11.9120  99.1050   8.2670 O 1 RES   0.0000
4407 O   9.5290  99.1050   8.2670 O 1 RES   0.0000
4408 O  10.7200 101.1680   8.2670 O 1 RES   0.0000
4409 Si  10.7200 102.5440   8.7530 Si 1 RES   0.0000
4410 O  10.7200 102.5440  10.2120 O 1 RES   0.0000
4411 O  15.4850  99.7930   6.3220 O 1 RES   0.0000
4412 Si  15.4850  99.7930   0.0000 Si 1 RES   0.0000
4413 O  15.4850 101.1680   0.4860 O 1 RES   0.0000
4414 Si  15.4850 102.5440   0.9730 Si 1 RES   0.0000
4415 O  16.6760  99.1050   0.4860 O 1 RES   0.0000
4416 O  14.2940  99.1050   0.4860 O 1 RES   0.0000
4417 O  15.4850 102.5440   2.4310 O 1 RES   0.0000
4418 Si  15.4850 102.5440   3.8900 Si 1 RES   0.0000
4419 O  15.4850 101.1680   4.3770 O 1 RES   0.0000
4420 Si  15.4850  99.7930   4.8630 Si 1 RES   0.0000
4421 O  16.6760  99.1050   4.3770 O 1 RES   0.0000
4422 O  14.2940  99.1050   4.3770 O 1 RES   0.0000
4423 Si  15.4850  99.7930   7.7810 Si 1 RES   0.0000
4424 O  16.6760  99.1050   8.2670 O 1 RES   0.0000
4425 O  14.2940  99.1050   8.2670 O 1 RES   0.0000
4426 O  15.4850 101.1680   8.2670 O 1 RES   0.0000
4427 Si  15.4850 102.5440   8.7530 Si 1 RES   0.0000
4428 O  15.4850 102.5440  10.2120 O 1 RES   0.0000
4429 O  13.1030 103.9190   6.3220 O 1 RES   0.0000
4430 Si  13.1030 103.9190   0.0000 Si 1 RES   0.0000
4431 O  13.1030 105.2940   0.4860 O 1 RES   0.0000
4432 Si  13.1030 106.6700   0.9730 Si 1 RES   0.0000
4433 O  14.2940 103.2310   0.4860 O 1 RES   0.0000
4434 O  11.9120 103.2310   0.4860 O 1 RES   0.0000
4435 O  13.1030 106.6700   2.4310 O 1 RES   0.0000
4436 Si  13.1030 106.6700   3.8900 Si 1 RES   0.0000
4437 O  13.1030 105.2940   4.3770 O 1 RES   0.0000
4438 Si  13.1030 103.9190   4.8630 Si 1 RES   0.0000
4439 O  14.2940 103.2310   4.3770 O 1 RES   0.0000
4440 O  11.9120 103.2310   4.3770 O 1 RES   0.0000
4441 Si  13.1030 103.9190   7.7810 Si 1 RES   0.0000
4442 O  14.2940 103.2310   8.2670 O 1 RES   0.0000
4443 O  11.9120 103.2310   8.2670 O 1 RES   0.0000
4444 O  13.1030 105.2940   8.2670 O 1 RES   0.0000
4445 Si  13.1030 106.6700   8.7530 Si 1 RES   0.0000
4446 O  13.1030 106.6700  10.2120 O 1 RES   0.0000
4447 O  17.8670 103.9190   6.3220 O 1 RES   0.0000
4448 Si  17.8670 103.9190   0.0000 Si 1 RES   0.0000
4449 O  17.8670 105.2940   0.4860 O 1 RES   0.0000
4450 Si  17.8670 106.6700   0.9730 Si 1 RES   0.0000
4451 O  19.0580 103.2310   0.4860 O 1 RES   0.0000
4452 O  16.6760 103.2310   0.4860 O 1 RES   0.0000
4453 O  17.8670 106.6700   2.4310 O 1 RES   0.0000
4454 Si  17.8670 106.6700   3.8900 Si 1 RES   0.0000
4455 O  17.8670 105.2940   4.3770 O 1 RES   0.0000
4456 Si  17.8670 103.9190   4.8630 Si 1 RES   0.0000
4457 O  19.0580 103.2310   4.3770 O 1 RES   0.0000
4458 O  16.6760 103.2310   4.3770 O 1 RES   0.0000
4459 Si  17.8670 103.9190   7.7810 Si 1 RES   0.0000
4460 O  19.0580 103.2310   8.2670 O 1 RES   0.0000
4461 O  16.6760 103.2310   8.2670 O 1 RES   0.0000
4462 O  17.8670 105.2940   8.2670 O 1 RES   0.0000
4463 Si  17.8670 106.6700   8.7530 Si 1 RES   0.0000
4464 O  17.8670 106.6700  10.2120 O 1 RES   0.0000
4465 O  20.2500  99.7930   6.3220 O 1 RES   0.0000
4466 Si  20.2500  99.7930   0.0000 Si 1 RES   0.0000
4467 O  20.2500 101.1680   0.4860 O 1 RES   0.0000
4468 Si  20.2500 102.5440   0.9730 Si 1 RES   0.0000
4469 O  21.4410  99.1050   0.4860 O 1 RES   0.0000
4470 O  19.0580  99.1050   0.4860 O 1 RES   0.0000
4471 O  20.2500 102.5440   2.4310 O 1 RES   0.0000
4472 Si  20.2500 102.5440   3.8900 Si 1 RES   0.0000
4473 O  20.2500 101.1680   4.3770 O 1 RES   0.0000
4474 Si  20.2500  99.7930   4.8630 Si 1 RES   0.0000
4475 O  21.4410  99.1050   4.3770 O 1 RES   0.0000
4476 O  19.0580  99.1050   4.3770 O 1 RES   0.0000
4477 Si  20.2500  99.7930   7.7810 Si 1 RES   0.0000
4478 O  21.4410  99.1050   8.2670 O 1 RES   0.0000
4479 O  19.0580  99.1050   8.2670 O 1 RES   0.0000
4480 O  20.2500 101.1680   8.2670 O 1 RES   0.0000
4481 Si  20.2500 102.5440   8.7530 Si 1 RES   0.0000
4482 O  20.2500 102.5440  10.2120 O 1 RES   0.0000
4483 O  25.0140  99.7930   6.3220 O 1 RES   0.0000
4484 Si  25.0140  99.7930   0.0000 Si 1 RES   0.0000
4485 O  25.0140 101.1680   0.4860 O 1 RES   0.0000
4486 Si  25.0140 102.5440   0.9730 Si 1 RES   0.0000
4487 O  26.2050  99.1050   0.4860 O 1 RES   0.0000
4488 O  23.8230  99.1050   0.4860 O 1 RES   0.0000
4489 O  25.0140 102.5440   2.4310 O 1 RES   0.0000
4490 Si  25.0140 102.5440   3.8900 Si 1 RES   0.0000
4491 O  25.0140 101.1680   4.3770 O 1 RES   0.0000
4492 Si  25.0140  99.7930   4.8630 Si 1 RES   0.0000
4493 O  26.2050  99.1050   4.3770 O 1 RES   0.0000
4494 O  23.8230  99.1050   4.3770 O 1 RES   0.0000
4495 Si  25.0140  99.7930   7.7810 Si 1 RES   0.0000
4496 O  26.2050  99.1050   8.2670 O 1 RES   0.0000
4497 O  23.8230  99.1050   8.2670 O 1 RES   0.0000
4498 O  25.0140 101.1680   8.2670 O 1 RES   0.0000
4499 Si  25.0140 102.5440   8.7530 Si 1 RES   0.0000
4500 O  25.0140 102.5440  10.2120 O 1 RES   0.0000
4501 O  22.6320 103.9190   6.3220 O 1 RES   0.0000
4502 Si  22.6320 103.9190   0.0000 Si 1 RES   0.0000
4503 O  22.6320 105.2940   0.4860 O 1 RES   0.0000
4504 Si  22.6320 106.6700   0.9730 Si 1 RES   0.0000
4505 O  23.8230 103.2310   0.4860 O 1 RES   0.0000
4506 O  21.4410 103.2310   0.4860 O 1 RES   0.0000
4507 O  22.6320 106.6700   2.4310 O 1 RES   0.0000
4508 Si  22.6320 106.6700   3.8900 Si 1 RES   0.0000
4509 O  22.6320 105.2940   4.3770 O 1 RES   0.0000
4510 Si  22.6320 103.9190   4.8630 Si 1 RES   0.0000
4511 O  23.8230 103.2310   4.3770 O 1 RES   0.0000
4512 O  21.4410 103.2310   4.3770 O 1 RES   0.0000
4513 Si  22.6320 103.9190   7.7810 Si 1 RES   0.0000
4514 O  23.8230 103.2310   8.2670 O 1 RES   0.0000
4515 O  21.4410 103.2310   8.2670 O 1 RES   0.0000
4516 O  22.6320 105.2940   8.2670 O 1 RES   0.0000
4517 Si  22.6320 106.6700   8.7530 Si 1 RES   0.0000
4518 O  22.6320 106.6700  10.2120 O 1 RES   0.0000
4519 O  27.3960 103.9190   6.3220 O 1 RES   0.0000
4520 Si  27.3960 103.9190   0.0000 Si 1 RES   0.0000
4521 O  27.3960 105.2940   0.4860 O 1 RES   0.0000
4522 Si  27.3960 106.6700   0.9730 Si 1 RES   0.0000
4523 O  28.5870 103.2310   0.4860 O 1 RES   0.0000
4524 O  26.2050 103.2310   0.4860 O 1 RES   0.0000
4525 O  27.3960 106.6700   2.4310 O 1 RES   0.0000
4526 Si  27.3960 106.6700   3.8900 Si 1 RES   0.0000
4527 O  27.3960 105.2940   4.3770 O 1 RES   0.0000
4528 Si  27.3960 103.9190   4.8630 Si 1 RES   0.0000
4529 O  28.5870 103.2310   4.3770 O 1 RES   0.0000
4530 O  26.2050 103.2310   4.3770 O 1 RES   0.0000
4531 Si  27.3960 103.9190   7.7810 Si 1 RES   0.0000
4532 O  28.5870 103.2310   8.2670 O 1 RES   0.0000
4533 O  26.2050 103.2310   8.2670 O 1 RES   0.0000
4534 O  27.3960 105.2940   8.2670 O 1 RES   0.0000
4535 Si  27.3960 106.6700   8.7530 Si 1 RES   0.0000
4536 O  27.3960 106.6700  10.2120 O 1 RES   0.0000
4537 O  29.7790  99.7930   6.3220 O 1 RES   0.0000
4538 Si  29.7790  99.7930   0.0000 Si 1 RES   0.0000
4539 O  29.7790 101.1680   0.4860 O 1 RES   0.0000
4540 Si  29.7790 102.5440   0.9730 Si 1 RES   0.0000
4541 O  30.9700  99.1050   0.4860 O 1 RES   0.0000
4542 O  28.5870  99.1050   0.4860 O 1 RES   0.0000
4543 O  29.7790 102.5440   2.4310 O 1 RES   0.0000
4544 Si  29.7790 102.5440   3.8900 Si 1 RES   0.0000
4545 O  29.7790 101.1680   4.3770 O 1 RES   0.0000
4546 Si  29.7790  99.7930   4.8630 Si 1 RES   0.0000
4547 O  30.9700  99.1050   4.3770 O 1 RES   0.0000
4548 O  28.5870  99.1050   4.3770 O 1 RES   0.0000
4549 Si  29.7790  99.7930   7.7810 Si 1 RES   0.0000
4550 O  30.9700  99.1050   8.2670 O 1 RES   0.0000
4551 O  28.5870  99.1050   8.2670 O 1 RES   0.0000
4552 O  29.7790 101.1680   8.2670 O 1 RES   0.0000
4553 Si  29.7790 102.5440   8.7530 Si 1 RES   0.0000
4554 O  29.7790 102.5440  10.2120 O 1 RES   0.0000
4555 O  34.5430  99.7930   6.3220 O 1 RES   0.0000
4556 Si  34.5430  99.7930   0.0000 Si 1 RES   0.0000
4557 O  34.5430 101.1680   0.4860 O 1 RES   0.0000
4558 Si  34.5430 102.5440   0.9730 Si 1 RES   0.0000
4559 O  35.7340  99.1050   0.4860 O 1 RES   0.0000
4560 O  33.3520  99.1050   0.4860 O 1 RES   0.0000
4561 O  34.5430 102.5440   2.4310 O 1 RES   0.0000
4562 Si  34.5430 102.5440   3.8900 Si 1 RES   0.0000
4563 O  34.5430 101.1680   4.3770 O 1 RES   0.0000
4564 Si  34.5430  99.7930   4.8630 Si 1 RES   0.0000
4565 O  35.7340  99.1050   4.3770 O 1 RES   0.0000
4566 O  33.3520  99.1050   4.3770 O 1 RES   0.0000
4567 Si  34.5430  99.7930   7.7810 Si 1 RES   0.0000
4568 O  35.7340  99.1050   8.2670 O 1 RES   0.0000
4569 O  33.3520  99.1050   8.2670 O 1 RES   0.0000
4570 O  34.5430 101.1680   8.2670 O 1 RES   0.0000
4571 Si  34.5430 102.5440   8.7530 Si 1 RES   0.0000
4572 O  34.5430 102.5440  10.2120 O 1 RES   0.0000
4573 O  32.1610 103.9190   6.3220 O 1 RES   0.0000
4574 Si  32.1610 103.9190   0.0000 Si 1 RES   0.0000
4575 O  32.1610 105.2940   0.4860 O 1 RES   0.0000
4576 Si  32.1610 106.6700   0.9730 Si 1 RES   0.0000
4577 O  33.3520 103.2310   0.4860 O 1 RES   0.0000
4578 O  30.9700 103.2310   0.4860 O 1 RES   0.0000
4579 O  32.1610 106.6700   2.4310 O 1 RES   0.0000
4580 Si  32.1610 106.6700   3.8900 Si 1 RES   0.0000
4581 O  32.1610 105.2940   4.3770 O 1 RES   0.0000
4582 Si  32.1610 103.9190   4.8630 Si 1 RES   0.0000
4583 O  33.3520 103.2310   4.3770 O 1 RES   0.0000
4584 O  30.9700 103.2310   4.3770 O 1 RES   0.0000
4585 Si  32.1610 103.9190   7.7810 Si 1 RES   0.0000
4586 O  33.3520 103.2310   8.2670 O 1 RES   0.0000
4587 O  30.9700 103.2310   8.2670 O 1 RES   0.0000
4588 O  32.1610 105.2940   8.2670 O 1 RES   0.0000
4589 Si  32.1610 106.6700   8.7530 Si 1 RES   0.0000
4590 O  32.1610 106.6700  10.2120 O 1 RES   0.0000
4591 O  36.9250 103.9190   6.3220 O 1 RES   0.0000
4592 Si  36.9250 103.9190   0.0000 Si 1 RES   0.0000
4593 O  36.9250 105.2940   0.4860 O 1 RES   0.0000
4594 Si  36.9250 106.6700   0.9730 Si 1 RES   0.0000
4595 O  38.1170 103.2310   0.4860 O 1 RES   0.0000
4596 O  35.7340 103.2310   0.4860 O 1 RES   0.0000
4597 O  36.9250 106.6700   2.4310 O 1 RES   0.0000
4598 Si  36.9250 106.6700   3.8900 Si 1 RES   0.0000
4599 O  36.9250 105.2940   4.3770 O 1 RES   0.0000
4600 Si  36.9250 103.9190   4.8630 Si 1 RES   0.0000
4601 O  38.1170 103.2310   4.3770 O 1 RES   0.0000
4602 O  35.7340 103.2310   4.3770 O 1 RES   0.0000
4603 Si  36.9250 103.9190   7.7810 Si 1 RES   0.0000
4604 O  38.1170 103.2310   8.2670 O 1 RES   0.0000
4605 O  35.7340 103.2310   8.2670 O 1 RES   0.0000
4606 O  36.9250 105.2940   8.2670 O 1 RES   0.0000
4607 Si  36.9250 106.6700   8.7530 Si 1 RES   0.0000
4608 O  36.9250 106.6700  10.2120 O 1 RES   0.0000
4609 O  39.3080  99.7930   6.3220 O 1 RES   0.0000
4610 Si  39.3080  99.7930   0.0000 Si 1 RES   0.0000
4611 O  39.3080 101.1680   0.4860 O 1 RES   0.0000
4612 Si  39.3080 102.5440   0.9730 Si 1 RES   0.0000
4613 O  40.4990  99.1050   0.4860 O 1 RES   0.0000
4614 O  38.1170  99.1050   0.4860 O 1 RES   0.0000
4615 O  39.3080 102.5440   2.4310 O 1 RES   0.0000
4616 Si  39.3080 102.5440   3.8900 Si 1 RES   0.0000
4617 O  39.3080 101.1680   4.3770 O 1 RES   0.0000
4618 Si  39.3080  99.7930   4.8630 Si 1 RES   0.0000
4619 O  40.4990  99.1050   4.3770 O 1 RES   0.0000
4620 O  38.1170  99.1050   4.3770 O 1 RES   0.0000
4621 Si  39.3080  99.7930   7.7810 Si 1 RES   0.0000
4622 O  40.4990  99.1050   8.2670 O 1 RES   0.0000
4623 O  38.1170  99.1050   8.2670 O 1 RES   0.0000
4624 O  39.3080 101.1680   8.2670 O 1 RES   0.0000
4625 Si  39.3080 102.5440   8.7530 Si 1 RES   0.0000
4626 O  39.3080 102.5440  10.2120 O 1 RES   0.0000
4627 O  44.0720  99.7930   6.3220 O 1 RES   0.0000
4628 Si  44.0720  99.7930   0.0000 Si 1 RES   0.0000
4629 O  44.0720 101.1680   0.4860 O 1 RES   0.0000
4630 Si  44.0720 102.5440   0.9730 Si 1 RES   0.0000
4631 O  45.2640  99.1050   0.4860 O 1 RES   0.0000
4632 O  42.8810  99.1050   0.4860 O 1 RES   0.0000
4633 O  44.0720 102.5440   2.4310 O 1 RES   0.0000
4634 Si  44.0720 102.5440   3.8900 Si 1 RES   0.0000
4635 O  44.0720 101.1680   4.3770 O 1 RES   0.0000
4636 Si  44.0720  99.7930   4.8630 Si 1 RES   0.0000
4637 O  45.2640  99.1050   4.3770 O 1 RES   0.0000
4638 O  42.8810  99.1050   4.3770 O 1 RES   0.0000
4639 Si  44.0720  99.7930   7.7810 Si 1 RES   0.0000
4640 O  45.2640  99.1050   8.2670 O 1 RES   0.0000
4641 O  42.8810  99.1050   8.2670 O 1 RES   0.0000
4642 O  44.0720 101.1680   8.2670 O 1 RES   0.0000
4643 Si  44.0720 102.5440   8.7530 Si 1 RES   0.0000
4644 O  44.0720 102.5440  10.2120 O 1 RES   0.0000
4645 O  41.6900 103.9190   6.3220 O 1 RES   0.0000
4646 Si  41.6900 103.9190   0.0000 Si 1 RES   0.0000
4647 O  41.6900 105.2940   0.4860 O 1 RES   0.0000
4648 Si  41.6900 106.6700   0.9730 Si 1 RES   0.0000
4649 O  42.8810 103.2310   0.4860 O 1 RES   0.0000
4650 O  40.4990 103.2310   0.4860 O 1 RES   0.0000
4651 O  41.6900 106.6700   2.4310 O 1 RES   0.0000
4652 Si  41.6900 106.6700   3.8900 Si 1 RES   0.0000
4653 O  41.6900 105.2940   4.3770 O 1 RES   0.0000
4654 Si  41.6900 103.9190   4.8630 Si 1 RES   0.0000
4655 O  42.8810 103.2310   4.3770 O 1 RES   0.0000
4656 O  40.4990 103.2310   4.3770 O 1 RES   0.0000
4657 Si  41.6900 103.9190   7.7810 Si 1 RES   0.0000
4658 O  42.8810 103.2310   8.2670 O 1 RES   0.0000
4659 O  40.4990 103.2310   8.2670 O 1 RES   0.0000
4660 O  41.6900 105.2940   8.2670 O 1 RES   0.0000
4661 Si  41.6900 106.6700   8.7530 Si 1 RES   0.0000
4662 O  41.6900 106.6700  10.2120 O 1 RES   0.0000
4663 O  46.4550 103.9190   6.3220 O 1 RES   0.0000
4664 Si  46.4550 103.9190   0.0000 Si 1 RES   0.0000
4665 O  46.4550 105.2940   0.4860 O 1 RES   0.0000
4666 Si  46.4550 106.6700   0.9730 Si 1 RES   0.0000
4667 O  -0.0430 103.2310   0.4860 O 1 RES   0.0000
4668 O  45.2640 103.2310   0.4860 O 1 RES   0.0000
4669 O  46.4550 106.6700   2.4310 O 1 RES   0.0000
4670 Si  46.4550 106.6700   3.8900 Si 1 RES   0.0000
4671 O  46.4550 105.2940   4.3770 O 1 RES   0.0000
4672 Si  46.4550 103.9190   4.8630 Si 1 RES   0.0000
4673 O  -0.0430 103.2310   4.3770 O 1 RES   0.0000
4674 O  45.2640 103.2310   4.3770 O 1 RES   0.0000
4675 Si  46.4550 103.9190   7.7810 Si 1 RES   0.0000
4676 O  -0.0430 103.2310   8.2670 O 1 RES   0.0000
4677 O  45.2640 103.2310   8.2670 O 1 RES   0.0000
4678 O  46.4550 105.2940   8.2670 O 1 RES   0.0000
4679 Si  46.4550 106.6700   8.7530 Si 1 RES   0.0000
4680 O  46.4550 106.6700  10.2120 O 1 RES   0.0000
4681 O   1.1910 108.0450   6.3220 O 1 RES   0.0000
4682 Si   1.1910 108.0450   0.0000 Si 1 RES   0.0000
4683 O   1.1910 109.4210   0.4860 O 1 RES   0.0000
4684 Si   1.1910 110.7960   0.9730 Si 1 RES   0.0000
4685 O   2.3820 107.3580   0.4860 O 1 RES   0.0000
4686 O   0.0000 107.3580   0.4860 O 1 RES   0.0000
4687 O   1.1910 110.7960   2.4310 O 1 RES   0.0000
4688 Si   1.1910 110.7960   3.8900 Si 1 RES   0.0000
4689 O   1.1910 109.4210   4.3770 O 1 RES   0.0000
4690 Si   1.1910 108.0450   4.8630 Si 1 RES   0.0000
4691 O   2.3820 107.3580   4.3770 O 1 RES   0.0000
4692 O   0.0000 107.3580   4.3770 O 1 RES   0.0000
4693 Si   1.1910 108.0450   7.7810 Si 1 RES   0.0000
4694 O   2.3820 107.3580   8.2670 O 1 RES   0.0000
4695 O   0.0000 107.3580   8.2670 O 1 RES   0.0000
4696 O   1.1910 109.4210   8.2670 O 1 RES   0.0000
4697 Si   1.1910 110.7960   8.7530 Si 1 RES   0.0000
4698 O   1.1910 110.7960  10.2120 O 1 RES   0.0000
4699 O   5.9560 108.0450   6.3220 O 1 RES   0.0000
4700 Si   5.9560 108.0450   0.0000 Si 1 RES   0.0000
4701 O   5.9560 109.4210   0.4860 O 1 RES   0.0000
4702 Si   5.9560 110.7960   0.9730 Si 1 RES   0.0000
4703 O   7.1470 107.3580   0.4860 O 1 RES   0.0000
4704 O   4.7650 107.3580   0.4860 O 1 RES   0.0000
4705 O   5.9560 110.7960   2.4310 O 1 RES   0.0000
4706 Si   5.9560 110.7960   3.8900 Si 1 RES   0.0000
4707 O   5.9560 109.4210   4.3770 O 1 RES   0.0000
4708 Si   5.9560 108.0450   4.8630 Si 1 RES   0.0000
4709 O   7.1470 107.3580   4.3770 O 1 RES   0.0000
4710 O   4.7650 107.3580   4.3770 O 1 RES   0.0000
4711 Si   5.9560 108.0450   7.7810 Si 1 RES   0.0000
4712 O   7.1470 107.3580   8.2670 O 1 RES   0.0000
4713 O   4.7650 107.3580   8.2670 O 1 RES   0.0000
4714 O   5.9560 109.4210   8.2670 O 1 RES   0.0000
4715 Si   5.9560 110.7960   8.7530 Si 1 RES   0.0000
4716 O   5.9560 110.7960  10.2120 O 1 RES   0.0000
4717 O   3.5730 112.1720   6.3220 O 1 RES   0.0000
4718 Si   3.5730 112.1720   0.0000 Si 1 RES   0.0000
4719 O   3.5730 113.5470   0.4860 O 1 RES   0.0000
4720 Si   3.5730 114.9220   0.9730 Si 1 RES   0.0000
4721 O   4.7650 111.4840   0.4860 O 1 RES   0.0000
4722 O   2.3820 111.4840   0.4860 O 1 RES   0.0000
4723 O   3.5730 114.9220   2.4310 O 1 RES   0.0000
4724 Si   3.5730 114.9220   3.8900 Si 1 RES   0.0000
4725 O   3.5730 113.5470   4.3770 O 1 RES   0.0000
4726 Si   3.5730 112.1720   4.8630 Si 1 RES   0.0000
4727 O   4.7650 111.4840   4.3770 O 1 RES   0.0000
4728 O   2.3820 111.4840   4.3770 O 1 RES   0.0000
4729 Si   3.5730 112.1720   7.7810 Si 1 RES   0.0000
4730 O   4.7650 111.4840   8.2670 O 1 RES   0.0000
4731 O   2.3820 111.4840   8.2670 O 1 RES   0.0000
4732 O   3.5730 113.5470   8.2670 O 1 RES   0.0000
4733 Si   3.5730 114.9220   8.7530 Si 1 RES   0.0000
4734 O   3.5730 114.9220  10.2120 O 1 RES   0.0000
4735 O   8.3380 112.1720   6.3220 O 1 RES   0.0000
4736 Si   8.3380 112.1720   0.0000 Si 1 RES   0.0000
4737 O   8.3380 113.5470   0.4860 O 1 RES   0.0000
4738 Si   8.3380 114.9220   0.9730 Si 1 RES   0.0000
4739 O   9.5290 111.4840   0.4860 O 1 RES   0.0000
4740 O   7.1470 111.4840   0.4860 O 1 RES   0.0000
4741 O   8.3380 114.9220   2.4310 O 1 RES   0.0000
4742 Si   8.3380 114.9220   3.8900 Si 1 RES   0.0000
4743 O   8.3380 113.5470   4.3770 O 1 RES   0.0000
4744 Si   8.3380 112.1720   4.8630 Si 1 RES   0.0000
4745 O   9.5290 111.4840   4.3770 O 1 RES   0.0000
4746 O   7.1470 111.4840   4.3770 O 1 RES   0.0000
4747 Si   8.3380 112.1720   7.7810 Si 1 RES   0.0000
4748 O   9.5290 111.4840   8.2670 O 1 RES   0.0000
4749 O   7.1470 111.4840   8.2670 O 1 RES   0.0000
4750 O   8.3380 113.5470   8.2670 O 1 RES   0.0000
4751 Si   8.3380 114.9220   8.7530 Si 1 RES   0.0000
4752 O   8.3380 114.9220  10.2120 O 1 RES   0.0000
4753 O  10.7200 108.0450   6.3220 O 1 RES   0.0000
4754 Si  10.7200 108.0450   0.0000 Si 1 RES   0.0000
4755 O  10.7200 109.4210   0.4860 O 1 RES   0.0000
4756 Si  10.7200 110.7960   0.9730 Si 1 RES   0.0000
4757 O  11.9120 107.3580   0.4860 O 1 RES   0.0000
4758 O   9.5290 107.3580   0.4860 O 1 RES   0.0000
4759 O  10.7200 110.7960   2.4310 O 1 RES   0.0000
4760 Si  10.7200 110.7960   3.8900 Si 1 RES   0.0000
4761 O  10.7200 109.4210   4.3770 O 1 RES   0.0000
4762 Si  10.7200 108.0450   4.8630 Si 1 RES   0.0000
4763 O  11.9120 107.3580   4.3770 O 1 RES   0.0000
4764 O   9.5290 107.3580   4.3770 O 1 RES   0.0000
4765 Si  10.7200 108.0450   7.7810 Si 1 RES   0.0000
4766 O  11.9120 107.3580   8.2670 O 1 RES   0.0000
4767 O   9.5290 107.3580   8.2670 O 1 RES   0.0000
4768 O  10.7200 109.4210   8.2670 O 1 RES   0.0000
4769 Si  10.7200 110.7960   8.7530 Si 1 RES   0.0000
4770 O  10.7200 110.7960  10.2120 O 1 RES   0.0000
4771 O  15.4850 108.0450   6.3220 O 1 RES   0.0000
4772 Si  15.4850 108.0450   0.0000 Si 1 RES   0.0000
4773 O  15.4850 109.4210   0.4860 O 1 RES   0.0000
4774 Si  15.4850 110.7960   0.9730 Si 1 RES   0.0000
4775 O  16.6760 107.3580   0.4860 O 1 RES   0.0000
4776 O  14.2940 107.3580   0.4860 O 1 RES   0.0000
4777 O  15.4850 110.7960   2.4310 O 1 RES   0.0000
4778 Si  15.4850 110.7960   3.8900 Si 1 RES   0.0000
4779 O  15.4850 109.4210   4.3770 O 1 RES   0.0000
4780 Si  15.4850 108.0450   4.8630 Si 1 RES   0.0000
4781 O  16.6760 107.3580   4.3770 O 1 RES   0.0000
4782 O  14.2940 107.3580   4.3770 O 1 RES   0.0000
4783 Si  15.4850 108.0450   7.7810 Si 1 RES   0.0000
4784 O  16.6760 107.3580   8.2670 O 1 RES   0.0000
4785 O  14.2940 107.3580   8.2670 O 1 RES   0.0000
4786 O  15.4850 109.4210   8.2670 O 1 RES   0.0000
4787 Si  15.4850 110.7960   8.7530 Si 1 RES   0.0000
4788 O  15.4850 110.7960  10.2120 O 1 RES   0.0000
4789 O  13.1030 112.1720   6.3220 O 1 RES   0.0000
4790 Si  13.1030 112.1720   0.0000 Si 1 RES   0.0000
4791 O  13.1030 113.5470   0.4860 O 1 RES   0.0000
4792 Si  13.1030 114.9220   0.9730 Si 1 RES   0.0000
4793 O  14.2940 111.4840   0.4860 O 1 RES   0.0000
4794 O  11.9120 111.4840   0.4860 O 1 RES   0.0000
4795 O  13.1030 114.9220   2.4310 O 1 RES   0.0000
4796 Si  13.1030 114.9220   3.8900 Si 1 RES   0.0000
4797 O  13.1030 113.5470   4.3770 O 1 RES   0.0000
4798 Si  13.1030 112.1720   4.8630 Si 1 RES   0.0000
4799 O  14.2940 111.4840   4.3770 O 1 RES   0.0000
4800 O  11.9120 111.4840   4.3770 O 1 RES   0.0000
4801 Si  13.1030 112.1720   7.7810 Si 1 RES   0.0000
4802 O  14.2940 111.4840   8.2670 O 1 RES   0.0000
4803 O  11.9120 111.4840   8.2670 O 1 RES   0.0000
4804 O  13.1030 113.5470   8.2670 O 1 RES   0.0000
4805 Si  13.1030 114.9220   8.7530 Si 1 RES   0.0000
4806 O  13.1030 114.9220  10.2120 O 1 RES   0.0000
4807 O  17.8670 112.1720   6.3220 O 1 RES   0.0000
4808 Si  17.8670 112.1720   0.0000 Si 1 RES   0.0000
4809 O  17.8670 113.5470   0.4860 O 1 RES   0.0000
4810 Si  17.8670 114.9220   0.9730 Si 1 RES   0.0000
4811 O  19.0580 111.4840   0.4860 O 1 RES   0.0000
4812 O  16.6760 111.4840   0.4860 O 1 RES   0.0000
4813 O  17.8670 114.9220   2.4310 O 1 RES   0.0000
4814 Si  17.8670 114.9220   3.8900 Si 1 RES   0.0000
4815 O  17.8670 113.5470   4.3770 O 1 RES   0.0000
4816 Si  17.8670 112.1720   4.8630 Si 1 RES   0.0000
4817 O  19.0580 111.4840   4.3770 O 1 RES   0.0000
4818 O  16.6760 111.4840   4.3770 O 1 RES   0.0000
4819 Si  17.8670 112.1720   7.7810 Si 1 RES   0.0000
4820 O  19.0580 111.4840   8.2670 O 1 RES   0.0000
4821 O  16.6760 111.4840   8.2670 O 1 RES   0.0000
4822 O  17.8670 113.5470   8.2670 O 1 RES   0.0000
4823 Si  17.8670 114.9220   8.7530 Si 1 RES   0.0000
4824 O  17.8670 114.9220  10.2120 O 1 RES   0.0000
4825 O  20.2500 108.0450   6.3220 O 1 RES   0.0000
4826 Si  20.2500 108.0450   0.0000 Si 1 RES   0.0000
4827 O  20.2500 109.4210   0.4860 O 1 RES   0.0000
4828 Si  20.2500 110.7960   0.9730 Si 1 RES   0.0000
4829 O  21.4410 107.3580   0.4860 O 1 RES   0.0000
4830 O  19.0580 107.3580   0.4860 O 1 RES   0.0000
4831 O  20.2500 110.7960   2.4310 O 1 RES   0.0000
4832 Si  20.2500 110.7960   3.8900 Si 1 RES   0.0000
4833 O  20.2500 109.4210   4.3770 O 1 RES   0.0000
4834 Si  20.2500 108.0450   4.8630 Si 1 RES   0.0000
4835 O  21.4410 107.3580   4.3770 O 1 RES   0.0000
4836 O  19.0580 107.3580   4.3770 O 1 RES   0.0000
4837 Si  20.2500 108.0450   7.7810 Si 1 RES   0.0000
4838 O  21.4410 107.3580   8.2670 O 1 RES   0.0000
4839 O  19.0580 107.3580   8.2670 O 1 RES   0.0000
4840 O  20.2500 109.4210   8.2670 O 1 RES   0.0000
4841 Si  20.2500 110.7960   8.7530 Si 1 RES   0.0000
4842 O  20.2500 110.7960  10.2120 O 1 RES   0.0000
4843 O  25.0140 108.0450   6.3220 O 1 RES   0.0000
4844 Si  25.0140 108.0450   0.0000 Si 1 RES   0.0000
4845 O  25.0140 109.4210   0.4860 O 1 RES   0.0000
4846 Si  25.0140 110.7960   0.9730 Si 1 RES   0.0000
4847 O  26.2050 107.3580   0.4860 O 1 RES   0.0000
4848 O  23.8230 107.3580   0.4860 O 1 RES   0.0000
4849 O  25.0140 110.7960   2.4310 O 1 RES   0.0000
4850 Si  25.0140 110.7960   3.8900 Si 1 RES   0.0000
4851 O  25.0140 109.4210   4.3770 O 1 RES   0.0000
4852 Si  25.0140 108.0450   4.8630 Si 1 RES   0.0000
4853 O  26.2050 107.3580   4.3770 O 1 RES   0.0000
4854 O  23.8230 107.3580   4.3770 O 1 RES   0.0000
4855 Si  25.0140 108.0450   7.7810 Si 1 RES   0.0000
4856 O  26.2050 107.3580   8.2670 O 1 RES   0.0000
4857 O  23.8230 107.3580   8.2670 O 1 RES   0.0000
4858 O  25.0140 109.4210   8.2670 O 1 RES   0.0000
4859 Si  25.0140 110.7960   8.7530 Si 1 RES   0.0000
4860 O  25.0140 110.7960  10.2120 O 1 RES   0.0000
4861 O  22.6320 112.1720   6.3220 O 1 RES   0.0000
4862 Si  22.6320 112.1720   0.0000 Si 1 RES   0.0000
4863 O  22.6320 113.5470   0.4860 O 1 RES   0.0000
4864 Si  22.6320 114.9220   0.9730 Si 1 RES   0.0000
4865 O  23.8230 111.4840   0.4860 O 1 RES   0.0000
4866 O  21.4410 111.4840   0.4860 O 1 RES   0.0000
4867 O  22.6320 114.9220   2.4310 O 1 RES   0.0000
4868 Si  22.6320 114.9220   3.8900 Si 1 RES   0.0000
4869 O  22.6320 113.5470   4.3770 O 1 RES   0.0000
4870 Si  22.6320 112.1720   4.8630 Si 1 RES   0.0000
4871 O  23.8230 111.4840   4.3770 O 1 RES   0.0000
4872 O  21.4410 111.4840   4.3770 O 1 RES   0.0000
4873 Si  22.6320 112.1720   7.7810 Si 1 RES   0.0000
4874 O  23.8230 111.4840   8.2670 O 1 RES   0.0000
4875 O  21.4410 111.4840   8.2670 O 1 RES   0.0000
4876 O  22.6320 113.5470   8.2670 O 1 RES   0.0000
4877 Si  22.6320 114.9220   8.7530 Si 1 RES   0.0000
4878 O  22.6320 114.9220  10.2120 O 1 RES   0.0000
4879 O  27.3960 112.1720   6.3220 O 1 RES   0.0000
4880 Si  27.3960 112.1720   0.0000 Si 1 RES   0.0000
4881 O  27.3960 113.5470   0.4860 O 1 RES   0.0000
4882 Si  27.3960 114.9220   0.9730 Si 1 RES   0.0000
4883 O  28.5870 111.4840   0.4860 O 1 RES   0.0000
4884 O  26.2050 111.4840   0.4860 O 1 RES   0.0000
4885 O  27.3960 114.9220   2.4310 O 1 RES   0.0000
4886 Si  27.3960 114.9220   3.8900 Si 1 RES   0.0000
4887 O  27.3960 113.5470   4.3770 O 1 RES   0.0000
4888 Si  27.3960 112.1720   4.8630 Si 1 RES   0.0000
4889 O  28.5870 111.4840   4.3770 O 1 RES   0.0000
4890 O  26.2050 111.4840   4.3770 O 1 RES   0.0000
4891 Si  27.3960 112.1720   7.7810 Si 1 RES   0.0000
4892 O  28.5870 111.4840   8.2670 O 1 RES   0.0000
4893 O  26.2050 111.4840   8.2670 O 1 RES   0.0000
4894 O  27.3960 113.5470   8.2670 O 1 RES   0.0000
4895 Si  27.3960 114.9220   8.7530 Si 1 RES   0.0000
4896 O  27.3960 114.9220  10.2120 O 1 RES   0.0000
4897 O  29.7790 108.0450   6.3220 O 1 RES   0.0000
4898 Si  29.7790 108.0450   0.0000 Si 1 RES   0.0000
4899 O  29.7790 109.4210   0.4860 O 1 RES   0.0000
4900 Si  29.7790 110.7960   0.9730 Si 1 RES   0.0000
4901 O  30.9700 107.3580   0.4860 O 1 RES   0.0000
4902 O  28.5870 107.3580   0.4860 O 1 RES   0.0000
4903 O  29.7790 110.7960   2.4310 O 1 RES   0.0000
4904 Si  29.7790 110.7960   3.8900 Si 1 RES   0.0000
4905 O  29.7790 109.4210   4.3770 O 1 RES   0.0000
4906 Si  29.7790 108.0450   4.8630 Si 1 RES   0.0000
4907 O  30.9700 107.3580   4.3770 O 1 RES   0.0000
4908 O  28.5870 107.3580   4.3770 O 1 RES   0.0000
4909 Si  29.7790 108.0450   7.7810 Si 1 RES   0.0000
4910 O  30.9700 107.3580   8.2670 O 1 RES   0.0000
4911 O  28.5870 107.3580   8.2670 O 1 RES   0.0000
4912 O  29.7790 109.4210   8.2670 O 1 RES   0.0000
4913 Si  29.7790 110.7960   8.7530 Si 1 RES   0.0000
4914 O  29.7790 110.7960  10.2120 O 1 RES   0.0000
4915 O  34.5430 108.0450   6.3220 O 1 RES   0.0000
4916 Si  34.5430 108.0450   0.0000 Si 1 RES   0.0000
4917 O  34.5430 109.4210   0.4860 O 1 RES   0.0000
4918 Si  34.5430 110.7960   0.9730 Si 1 RES   0.0000
4919 O  35.7340 107.3580   0.4860 O 1 RES   0.0000
4920 O  33.3520 107.3580   0.4860 O 1 RES   0.0000
4921 O  34.5430 110.7960   2.4310 O 1 RES   0.0000
4922 Si  34.5430 110.7960   3.8900 Si 1 RES   0.0000
4923 O  34.5430 109.4210   4.3770 O 1 RES   0.0000
4924 Si  34.5430 108.0450   4.8630 Si 1 RES   0.0000
4925 O  35.7340 107.3580   4.3770 O 1 RES   0.0000
4926 O  33.3520 107.3580   4.3770 O 1 RES   0.0000
4927 Si  34.5430 108.0450   7.7810 Si 1 RES   0.0000
4928 O  35.7340 107.3580   8.2670 O 1 RES   0.0000
4929 O  33.3520 107.3580   8.2670 O 1 RES   0.0000
4930 O  34.5430 109.4210   8.2670 O 1 RES   0.0000
4931 Si  34.5430 110.7960   8.7530 Si 1 RES   0.0000
4932 O  34.5430 110.7960  10.2120 O 1 RES   0.0000
4933 O  32.1610 112.1720   6.3220 O 1 RES   0.0000
4934 Si  32.1610 112.1720   0.0000 Si 1 RES   0.0000
4935 O  32.1610 113.5470   0.4860 O 1 RES   0.0000
4936 Si  32.1610 114.9220   0.9730 Si 1 RES   0.0000
4937 O  33.3520 111.4840   0.4860 O 1 RES   0.0000
4938 O  30.9700 111.4840   0.4860 O 1 RES   0.0000
4939 O  32.1610 114.9220   2.4310 O 1 RES   0.0000
4940 Si  32.1610 114.9220   3.8900 Si 1 RES   0.0000
4941 O  32.1610 113.5470   4.3770 O 1 RES   0.0000
4942 Si  32.1610 112.1720   4.8630 Si 1 RES   0.0000
4943 O  33.3520 111.4840   4.3770 O 1 RES   0.0000
4944 O  30.9700 111.4840   4.3770 O 1 RES   0.0000
4945 Si  32.1610 112.1720   7.7810 Si 1 RES   0.0000
4946 O  33.3520 111.4840   8.2670 O 1 RES   0.0000
4947 O  30.9700 111.4840   8.2670 O 1 RES   0.0000
4948 O  32.1610 113.5470   8.2670 O 1 RES   0.0000
4949 Si  32.1610 114.9220   8.7530 Si 1 RES   0.0000
4950 O  32.1610 114.9220  10.2120 O 1 RES   0.0000
4951 O  36.9250 112.1720   6.3220 O 1 RES   0.0000
4952 Si  36.9250 112.1720   0.0000 Si 1 RES   0.0000
4953 O  36.9250 113.5470   0.4860 O 1 RES   0.0000
4954 Si  36.9250 114.9220   0.9730 Si 1 RES   0.0000
4955 O  38.1170 111.4840   0.4860 O 1 RES   0.0000
4956 O  35.7340 111.4840   0.4860 O 1 RES   0.0000
4957 O  36.9250 114.9220   2.4310 O 1 RES   0.0000
4958 Si  36.9250 114.9220   3.8900 Si 1 RES   0.0000
4959 O  36.9250 113.5470   4.3770 O 1 RES   0.0000
4960 Si  36.9250 112.1720   4.8630 Si 1 RES   0.0000
4961 O  38.1170 111.4840   4.3770 O 1 RES   0.0000
4962 O  35.7340 111.4840   4.3770 O 1 RES   0.0000
4963 Si  36.9250 112.1720   7.7810 Si 1 RES   0.0000
4964 O  38.1170 111.4840   8.2670 O 1 RES   0.0000
4965 O  35.7340 111.4840   8.2670 O 1 RES   0.0000
4966 O  36.9250 113.5470   8.2670 O 1 RES   0.0000
4967 Si  36.9250 114.9220   8.7530 Si 1 RES   0.0000
4968 O  36.9250 114.9220  10.2120 O 1 RES   0.0000
4969 O  39.3080 108.0450   6.3220 O 1 RES   0.0000
4970 Si  39.3080 108.0450   0.0000 Si 1 RES   0.0000
4971 O  39.3080 109.4210   0.4860 O 1 RES   0.0000
4972 Si  39.3080 110.7960   0.9730 Si 1 RES   0.0000
4973 O  40.4990 107.3580   0.4860 O 1 RES   0.0000
4974 O  38.1170 107.3580   0.4860 O 1 RES   0.0000
4975 O  39.3080 110.7960   2.4310 O 1 RES   0.0000
4976 Si  39.3080 110.7960   3.8900 Si 1 RES   0.0000
4977 O  39.3080 109.4210   4.3770 O 1 RES   0.0000
4978 Si  39.3080 108.0450   4.8630 Si 1 RES   0.0000
4979 O  40.4990 107.3580   4.3770 O 1 RES   0.0000
4980 O  38.1170 107.3580   4.3770 O 1 RES   0.0000
4981 Si  39.3080 108.0450   7.7810 Si 1 RES   0.0000
4982 O  40.4990 107.3580   8.2670 O 1 RES   0.0000
4983 O  38.1170 107.3580   8.2670 O 1 RES   0.0000
4984 O  39.3080 109.4210   8.2670 O 1 RES   0.0000
4985 Si  39.3080 110.7960   8.7530 Si 1 RES   0.0000
4986 O  39.3080 110.7960  10.2120 O 1 RES   0.0000
4987 O  44.0720 108.0450   6.3220 O 1 RES   0.0000
4988 Si  44.0720 108.0450   0.0000 Si 1 RES   0.0000
4989 O  44.0720 109.4210   0.4860 O 1 RES   0.0000
4990 Si  44.0720 110.7960   0.9730 Si 1 RES   0.0000
4991 O  45.2640 107.3580   0.4860 O 1 RES   0.0000
4992 O  42.8810 107.3580   0.4860 O 1 RES   0.0000
4993 O  44.0720 110.7960   2.4310 O 1 RES   0.0000
4994 Si  44.0720 110.7960   3.8900 Si 1 RES   0.0000
4995 O  44.0720 109.4210   4.3770 O 1 RES   0.0000
4996 Si  44.0720 108.0450   4.8630 Si 1 RES   0.0000
4997 O  45.2640 107.3580   4.3770 O 1 RES   0.0000
4998 O  42.8810 107.3580   4.3770 O 1 RES   0.0000
4999 Si  44.0720 108.0450   7.7810 Si 1 RES   0.0000
5000 O  45.2640 107.3580   8.2670 O 1 RES   0.0000
5001 O  42.8810 107.3580   8.2670 O 1 RES   0.0000
5002 O  44.0720 109.4210   8.2670 O 1 RES   0.0000
5003 Si  44.0720 110.7960   8.7530 Si 1 RES   0.0000
5004 O  44.0720 110.7960  10.2120 O 1 RES   0.0000
5005 O  41.6900 112.1720   6.3220 O 1 RES   0.0000
5006 Si  41.6900 112.1720   0.0000 Si 1 RES   0.0000
5007 O  41.6900 113.5470   0.4860 O 1 RES   0.0000
5008 Si  41.6900 114.9220   0.9730 Si 1 RES   0.0000
5009 O  42.8810 111.4840   0.4860 O 1 RES   0.0000
5010 O  40.4990 111.4840   0.4860 O 1 RES   0.0000
5011 O  41.6900 114.9220   2.4310 O 1 RES   0.0000
5012 Si  41.6900 114.9220   3.8900 Si 1 RES   0.0000
5013 O  41.6900 113.5470   4.3770 O 1 RES   0.0000
5014 Si  41.6900 112.1720   4.8630 Si 1 RES   0.0000
5015 O  42.8810 111.4840   4.3770 O 1 RES   0.0000
5016 O  40.4990 111.4840   4.3770 O 1 RES   0.0000
5017 Si  41.6900 112.1720   7.7810 Si 1 RES   0.0000
5018 O  42.8810 111.4840   8.2670 O 1 RES   0.0000
5019 O  40.4990 111.4840   8.2670 O 1 RES   0.0000
5020 O  41.6900 113.5470   8.2670 O 1 RES   0.0000
5021 Si  41.6900 114.9220   8.7530 Si 1 RES   0.0000
5022 O  41.6900 114.9220  10.2120 O 1 RES   0.0000
5023 O  46.4550 112.1720   6.3220 O 1 RES   0.0000
5024 Si  46.4550 112.1720   0.0000 Si 1 RES   0.0000
5025 O  46.4550 113.5470   0.4860 O 1 RES   0.0000
5026 Si  46.4550 114.9220   0.9730 Si 1 RES   0.0000
5027 O  -0.0430 111.4840   0.4860 O 1 RES   0.0000
5028 O  45.2640 111.4840   0.4860 O 1 RES   0.0000
5029 O  46.4550 114.9220   2.4310 O 1 RES   0.0000
5030 Si  46.4550 114.9220   3.8900 Si 1 RES   0.0000
5031 O  46.4550 113.5470   4.3770 O 1 RES   0.0000
5032 Si  46.4550 112.1720   4.8630 Si 1 RES   0.0000
5033 O  -0.0430 111.4840   4.3770 O 1 RES   0.0000
5034 O  45.2640 111.4840   4.3770 O 1 RES   0.0000
5035 Si  46.4550 112.1720   7.7810 Si 1 RES   0.0000
5036 O  -0.0430 111.4840   8.2670 O 1 RES   0.0000
5037 O  45.2640 111.4840   8.2670 O 1 RES   0.0000
5038 O  46.4550 113.5470   8.2670 O 1 RES   0.0000
5039 Si  46.4550 114.9220   8.7530 Si 1 RES   0.0000
5040 O  46.4550 114.9220  10.2120 O 1 RES   0.0000
5041 O   1.1910 116.2980   6.3220 O 1 RES   0.0000
5042 Si   1.1910 116.2980   0.0000 Si 1 RES   0.0000
5043 O   1.1910 117.6730   0.4860 O 1 RES   0.0000
5044 Si   1.1910 119.0490   0.9730 Si 1 RES   0.0000
5045 O   2.3820 115.6100   0.4860 O 1 RES   0.0000
5046 O   0.0000 115.6100   0.4860 O 1 RES   0.0000
5047 O   1.1910 119.0490   2.4310 O 1 RES   0.0000
5048 Si   1.1910 119.0490   3.8900 Si 1 RES   0.0000
5049 O   1.1910 117.6730   4.3770 O 1 RES   0.0000
5050 Si   1.1910 116.2980   4.8630 Si 1 RES   0.0000
5051 O   2.3820 115.6100   4.3770 O 1 RES   0.0000
5052 O   0.0000 115.6100   4.3770 O 1 RES   0.0000
5053 Si   1.1910 116.2980   7.7810 Si 1 RES   0.0000
5054 O   2.3820 115.6100   8.2670 O 1 RES   0.0000
5055 O   0.0000 115.6100   8.2670 O 1 RES   0.0000
5056 O   1.1910 117.6730   8.2670 O 1 RES   0.0000
5057 Si   1.1910 119.0490   8.7530 Si 1 RES   0.0000
5058 O   1.1910 119.0490  10.2120 O 1 RES   0.0000
5059 O   5.9560 116.2980   6.3220 O 1 RES   0.0000
5060 Si   5.9560 116.2980   0.0000 Si 1 RES   0.0000
5061 O   5.9560 117.6730   0.4860 O 1 RES   0.0000
5062 Si   5.9560 119.0490   0.9730 Si 1 RES   0.0000
5063 O   7.1470 115.6100   0.4860 O 1 RES   0.0000
5064 O   4.7650 115.6100   0.4860 O 1 RES   0.0000
5065 O   5.9560 119.0490   2.4310 O 1 RES   0.0000
5066 Si   5.9560 119.0490   3.8900 Si 1 RES   0.0000
5067 O   5.9560 117.6730   4.3770 O 1 RES   0.0000
5068 Si   5.9560 116.2980   4.8630 Si 1 RES   0.0000
5069 O   7.1470 115.6100   4.3770 O 1 RES   0.0000
5070 O   4.7650 115.6100   4.3770 O 1 RES   0.0000
5071 Si   5.9560 116.2980   7.7810 Si 1 RES   0.0000
5072 O   7.1470 115.6100   8.2670 O 1 RES   0.0000
5073 O   4.7650 115.6100   8.2670 O 1 RES   0.0000
5074 O   5.9560 117.6730   8.2670 O 1 RES   0.0000
5075 Si   5.9560 119.0490   8.7530 Si 1 RES   0.0000
5076 O   5.9560 119.0490  10.2120 O 1 RES   0.0000
5077 O   3.5730 120.4240   6.3220 O 1 RES   0.0000
5078 Si   3.5730 120.4240   0.0000 Si 1 RES   0.0000
5079 O   3.5730 121.7990   0.4860 O 1 RES   0.0000
5080 Si   3.5730  81.8750   0.9730 Si 1 RES   0.0000
5081 O   4.7650 119.7360   0.4860 O 1 RES   0.0000
5082 O   2.3820 119.7360   0.4860 O 1 RES   0.0000
5083 O   3.5730  81.8750   2.4310 O 1 RES   0.0000
5084 Si   3.5730  81.8750   3.8900 Si 1 RES   0.0000
5085 O   3.5730 121.7990   4.3770 O 1 RES   0.0000
5086 Si   3.5730 120.4240   4.8630 Si 1 RES   0.0000
5087 O   4.7650 119.7360   4.3770 O 1 RES   0.0000
5088 O   2.3820 119.7360   4.3770 O 1 RES   0.0000
5089 Si   3.5730 120.4240   7.7810 Si 1 RES   0.0000
5090 O   4.7650 119.7360   8.2670 O 1 RES   0.0000
5091 O   2.3820 119.7360   8.2670 O 1 RES   0.0000
5092 O   3.5730 121.7990   8.2670 O 1 RES   0.0000
5093 Si   3.5730  81.8750   8.7530 Si 1 RES   0.0000
5094 O   3.5730  81.8750  10.2120 O 1 RES   0.0000
5095 O   8.3380 120.4240   6.3220 O 1 RES   0.0000
5096 Si   8.3380 120.4240   0.0000 Si 1 RES   0.0000
5097 O   8.3380 121.7990   0.4860 O 1 RES   0.0000
5098 Si   8.3380  81.8750   0.9730 Si 1 RES   0.0000
5099 O   9.5290 119.7360   0.4860 O 1 RES   0.0000
5100 O   7.1470 119.7360   0.4860 O 1 RES   0.0000
5101 O   8.3380  81.8750   2.4310 O 1 RES   0.0000
5102 Si   8.3380  81.8750   3.8900 Si 1 RES   0.0000
5103 O   8.3380 121.7990   4.3770 O 1 RES   0.0000
5104 Si   8.3380 120.4240   4.8630 Si 1 RES   0.0000
5105 O   9.5290 119.7360   4.3770 O 1 RES   0.0000
5106 O   7.1470 119.7360   4.3770 O 1 RES   0.0000
5107 Si   8.3380 120.4240   7.7810 Si 1 RES   0.0000
5108 O   9.5290 119.7360   8.2670 O 1 RES   0.0000
5109 O   7.1470 119.7360   8.2670 O 1 RES   0.0000
5110 O   8.3380 121.7990   8.2670 O 1 RES   0.0000
5111 Si   8.3380  81.8750   8.7530 Si 1 RES   0.0000
5112 O   8.3380  81.8750  10.2120 O 1 RES   0.0000
5113 O  10.7200 116.2980   6.3220 O 1 RES   0.0000
5114 Si  10.7200 116.2980   0.0000 Si 1 RES   0.0000
5115 O  10.7200 117.6730   0.4860 O 1 RES   0.0000
5116 Si  10.7200 119.0490   0.9730 Si 1 RES   0.0000
5117 O  11.9120 115.6100   0.4860 O 1 RES   0.0000
5118 O   9.5290 115.6100   0.4860 O 1 RES   0.0000
5119 O  10.7200 119.0490   2.4310 O 1 RES   0.0000
5120 Si  10.7200 119.0490   3.8900 Si 1 RES   0.0000
5121 O  10.7200 117.6730   4.3770 O 1 RES   0.0000
5122 Si  10.7200 116.2980   4.8630 Si 1 RES   0.0000
5123 O  11.9120 115.6100   4.3770 O 1 RES   0.0000
5124 O   9.5290 115.6100   4.3770 O 1 RES   0.0000
5125 Si  10.7200 116.2980   7.7810 Si 1 RES   0.0000
5126 O  11.9120 115.6100   8.2670 O 1 RES   0.0000
5127 O   9.5290 115.6100   8.2670 O 1 RES   0.0000
5128 O  10.7200 117.6730   8.2670 O 1 RES   0.0000
5129 Si  10.7200 119.0490   8.7530 Si 1 RES   0.0000
5130 O  10.7200 119.0490  10.2120 O 1 RES   0.0000
5131 O  15.4850 116.2980   6.3220 O 1 RES   0.0000
5132 Si  15.4850 116.2980   0.0000 Si 1 RES   0.0000
5133 O  15.4850 117.6730   0.4860 O 1 RES   0.0000
5134 Si  15.4850 119.0490   0.9730 Si 1 RES   0.0000
5135 O  16.6760 115.6100   0.4860 O 1 RES   0.0000
5136 O  14.2940 115.6100   0.4860 O 1 RES   0.0000
5137 O  15.4850 119.0490   2.4310 O 1 RES   0.0000
5138 Si  15.4850 119.0490   3.8900 Si 1 RES   0.0000
5139 O  15.4850 117.6730   4.3770 O 1 RES   0.0000
5140 Si  15.4850 116.2980   4.8630 Si 1 RES   0.0000
5141 O  16.6760 115.6100   4.3770 O 1 RES   0.0000
5142 O  14.2940 115.6100   4.3770 O 1 RES   0.0000
5143 Si  15.4850 116.2980   7.7810 Si 1 RES   0.0000
5144 O  16.6760 115.6100   8.2670 O 1 RES   0.0000
5145 O  14.2940 115.6100   8.2670 O 1 RES   0.0000
5146 O  15.4850 117.6730   8.2670 O 1 RES   0.0000
5147 Si  15.4850 119.0490   8.7530 Si 1 RES   0.0000
5148 O  15.4850 119.0490  10.2120 O 1 RES   0.0000
5149 O  13.1030 120.4240   6.3220 O 1 RES   0.0000
5150 Si  13.1030 120.4240   0.0000 Si 1 RES   0.0000
5151 O  13.1030 121.7990   0.4860 O 1 RES   0.0000
5152 Si  13.1030  81.8750   0.9730 Si 1 RES   0.0000
5153 O  14.2940 119.7360   0.4860 O 1 RES   0.0000
5154 O  11.9120 119.7360   0.4860 O 1 RES   0.0000
5155 O  13.1030  81.8750   2.4310 O 1 RES   0.0000
5156 Si  13.1030  81.8750   3.8900 Si 1 RES   0.0000
5157 O  13.1030 121.7990   4.3770 O 1 RES   0.0000
5158 Si  13.1030 120.4240   4.8630 Si 1 RES   0.0000
5159 O  14.2940 119.7360   4.3770 O 1 RES   0.0000
5160 O  11.9120 119.7360   4.3770 O 1 RES   0.0000
5161 Si  13.1030 120.4240   7.7810 Si 1 RES   0.0000
5162 O  14.2940 119.7360   8.2670 O 1 RES   0.0000
5163 O  11.9120 119.7360   8.2670 O 1 RES   0.0000
5164 O  13.1030 121.7990   8.2670 O 1 RES   0.0000
5165 Si  13.1030  81.8750   8.7530 Si 1 RES   0.0000
5166 O  13.1030  81.8750  10.2120 O 1 RES   0.0000
5167 O  17.8670 120.4240   6.3220 O 1 RES   0.0000
5168 Si  17.8670 120.4240   0.0000 Si 1 RES   0.0000
5169 O  17.8670 121.7990   0.4860 O 1 RES   0.0000
5170 Si  17.8670  81.8750   0.9730 Si 1 RES   0.0000
5171 O  19.0580 119.7360   0.4860 O 1 RES   0.0000
5172 O  16.6760 119.7360   0.4860 O 1 RES   0.0000
5173 O  17.8670  81.8750   2.4310 O 1 RES   0.0000
5174 Si  17.8670  81.8750   3.8900 Si 1 RES   0.0000
5175 O  17.8670 121.7990   4.3770 O 1 RES   0.0000
5176 Si  17.8670 120.4240   4.8630 Si 1 RES   0.0000
5177 O  19.0580 119.7360   4.3770 O 1 RES   0.0000
5178 O  16.6760 119.7360   4.3770 O 1 RES   0.0000
5179 Si  17.8670 120.4240   7.7810 Si 1 RES   0.0000
5180 O  19.0580 119.7360   8.2670 O 1 RES   0.0000
5181 O  16.6760 119.7360   8.2670 O 1 RES   0.0000
5182 O  17.8670 121.7990   8.2670 O 1 RES   0.0000
5183 Si  17.8670  81.8750   8.7530 Si 1 RES   0.0000
5184 O  17.8670  81.8750  10.2120 O 1 RES   0.0000
5185 O  20.2500 116.2980   6.3220 O 1 RES   0.0000
5186 Si  20.2500 116.2980   0.0000 Si 1 RES   0.0000
5187 O  20.2500 117.6730   0.4860 O 1 RES   0.0000
5188 Si  20.2500 119.0490   0.9730 Si 1 RES   0.0000
5189 O  21.4410 115.6100   0.4860 O 1 RES   0.0000
5190 O  19.0580 115.6100   0.4860 O 1 RES   0.0000
5191 O  20.2500 119.0490   2.4310 O 1 RES   0.0000
5192 Si  20.2500 119.0490   3.8900 Si 1 RES   0.0000
5193 O  20.2500 117.6730   4.3770 O 1 RES   0.0000
5194 Si  20.2500 116.2980   4.8630 Si 1 RES   0.0000
5195 O  21.4410 115.6100   4.3770 O 1 RES   0.0000
5196 O  19.0580 115.6100   4.3770 O 1 RES   0.0000
5197 Si  20.2500 116.2980   7.7810 Si 1 RES   0.0000
5198 O  21.4410 115.6100   8.2670 O 1 RES   0.0000
5199 O  19.0580 115.6100   8.2670 O 1 RES   0.0000
5200 O  20.2500 117.6730   8.2670 O 1 RES   0.0000
5201 Si  20.2500 119.0490   8.7530 Si 1 RES   0.0000
5202 O  20.2500 119.0490  10.2120 O 1 RES   0.0000
5203 O  25.0140 116.2980   6.3220 O 1 RES   0.0000
5204 Si  25.0140 116.2980   0.0000 Si 1 RES   0.0000
5205 O  25.0140 117.6730   0.4860 O 1 RES   0.0000
5206 Si  25.0140 119.0490   0.9730 Si 1 RES   0.0000
5207 O  26.2050 115.6100   0.4860 O 1 RES   0.0000
5208 O  23.8230 115.6100   0.4860 O 1 RES   0.0000
5209 O  25.0140 119.0490   2.4310 O 1 RES   0.0000
5210 Si  25.0140 119.0490   3.8900 Si 1 RES   0.0000
5211 O  25.0140 117.6730   4.3770 O 1 RES   0.0000
5212 Si  25.0140 116.2980   4.8630 Si 1 RES   0.0000
5213 O  26.2050 115.6100   4.3770 O 1 RES   0.0000
5214 O  23.8230 115.6100   4.3770 O 1 RES   0.0000
5215 Si  25.0140 116.2980   7.7810 Si 1 RES   0.0000
5216 O  26.2050 115.6100   8.2670 O 1 RES   0.0000
5217 O  23.8230 115.6100   8.2670 O 1 RES   0.0000
5218 O  25.0140 117.6730   8.2670 O 1 RES   0.0000
5219 Si  25.0140 119.0490   8.7530 Si 1 RES   0.0000
5220 O  25.0140 119.0490  10.2120 O 1 RES   0.0000
5221 O  22.6320 120.4240   6.3220 O 1 RES   0.0000
5222 Si  22.6320 120.4240   0.0000 Si 1 RES   0.0000
5223 O  22.6320 121.7990   0.4860 O 1 RES   0.0000
5224 Si  22.6320  81.8750   0.9730 Si 1 RES   0.0000
5225 O  23.8230 119.7360   0.4860 O 1 RES   0.0000
5226 O  21.4410 119.7360   0.4860 O 1 RES   0.0000
5227 O  22.6320  81.8750   2.4310 O 1 RES   0.0000
5228 Si  22.6320  81.8750   3.8900 Si 1 RES   0.0000
5229 O  22.6320 121.7990   4.3770 O 1 RES   0.0000
5230 Si  22.6320 120.4240   4.8630 Si 1 RES   0.0000
5231 O  23.8230 119.7360   4.3770 O 1 RES   0.0000
5232 O  21.4410 119.7360   4.3770 O 1 RES   0.0000
5233 Si  22.6320 120.4240   7.7810 Si 1 RES   0.0000
5234 O  23.8230 119.7360   8.2670 O 1 RES   0.0000
5235 O  21.4410 119.7360   8.2670 O 1 RES   0.0000
5236 O  22.6320 121.7990   8.2670 O 1 RES   0.0000
5237 Si  22.6320  81.8750   8.7530 Si 1 RES   0.0000
5238 O  22.6320  81.8750  10.2120 O 1 RES   0.0000
5239 O  27.3960 120.4240   6.3220 O 1 RES   0.0000
5240 Si  27.3960 120.4240   0.0000 Si 1 RES   0.0000
5241 O  27.3960 121.7990   0.4860 O 1 RES   0.0000
5242 Si  27.3960  81.8750   0.9730 Si 1 RES   0.0000
5243 O  28.5870 119.7360   0.4860 O 1 RES   0.0000
5244 O  26.2050 119.7360   0.4860 O 1 RES   0.0000
5245 O  27.3960  81.8750   2.4310 O 1 RES   0.0000
5246 Si  27.3960  81.8750   3.8900 Si 1 RES   0.0000
5247 O  27.3960 121.7990   4.3770 O 1 RES   0.0000
5248 Si  27.3960 120.4240   4.8630 Si 1 RES   0.0000
5249 O  28.5870 119.7360   4.3770 O 1 RES   0.0000
5250 O  26.2050 119.7360   4.3770 O 1 RES   0.0000
5251 Si  27.3960 120.4240   7.7810 Si 1 RES   0.0000
5252 O  28.5870 119.7360   8.2670 O 1 RES   0.0000
5253 O  26.2050 119.7360   8.2670 O 1 RES   0.0000
5254 O  27.3960 121.7990   8.2670 O 1 RES   0.0000
5255 Si  27.3960  81.8750   8.7530 Si 1 RES   0.0000
5256 O  27.3960  81.8750  10.2120 O 1 RES   0.0000
5257 O  29.7790 116.2980   6.3220 O 1 RES   0.0000
5258 Si  29.7790 116.2980   0.0000 Si 1 RES   0.0000
5259 O  29.7790 117.6730   0.4860 O 1 RES   0.0000
5260 Si  29.7790 119.0490   0.9730 Si 1 RES   0.0000
5261 O  30.9700 115.6100   0.4860 O 1 RES   0.0000
5262 O  28.5870 115.6100   0.4860 O 1 RES   0.0000
5263 O  29.7790 119.0490   2.4310 O 1 RES   0.0000
5264 Si  29.7790 119.0490   3.8900 Si 1 RES   0.0000
5265 O  29.7790 117.6730   4.3770 O 1 RES   0.0000
5266 Si  29.7790 116.2980   4.8630 Si 1 RES   0.0000
5267 O  30.9700 115.6100   4.3770 O 1 RES   0.0000
5268 O  28.5870 115.6100   4.3770 O 1 RES   0.0000
5269 Si  29.7790 116.2980   7.7810 Si 1 RES   0.0000
5270 O  30.9700 115.6100   8.2670 O 1 RES   0.0000
5271 O  28.5870 115.6100   8.2670 O 1 RES   0.0000
5272 O  29.7790 117.6730   8.2670 O 1 RES   0.0000
5273 Si  29.7790 119.0490   8.7530 Si 1 RES   0.0000
5274 O  29.7790 119.0490  10.2120 O 1 RES   0.0000
5275 O  34.5430 116.2980   6.3220 O 1 RES   0.0000
5276 Si  34.5430 116.2980   0.0000 Si 1 RES   0.0000
5277 O  34.5430 117.6730   0.4860 O 1 RES   0.0000
5278 Si  34.5430 119.0490   0.9730 Si 1 RES   0.0000
5279 O  35.7340 115.6100   0.4860 O 1 RES   0.0000
5280 O  33.3520 115.6100   0.4860 O 1 RES   0.0000
5281 O  34.5430 119.0490   2.4310 O 1 RES   0.0000
5282 Si  34.5430 119.0490   3.8900 Si 1 RES   0.0000
5283 O  34.5430 117.6730   4.3770 O 1 RES   0.0000
5284 Si  34.5430 116.2980   4.8630 Si 1 RES   0.0000
5285 O  35.7340 115.6100   4.3770 O 1 RES   0.0000
5286 O  33.3520 115.6100   4.3770 O 1 RES   0.0000
5287 Si  34.5430 116.2980   7.7810 Si 1 RES   0.0000
5288 O  35.7340 115.6100   8.2670 O 1 RES   0.0000
5289 O  33.3520 115.6100   8.2670 O 1 RES   0.0000
5290 O  34.5430 117.6730   8.2670 O 1 RES   0.0000
5291 Si  34.5430 119.0490   8.7530 Si 1 RES   0.0000
5292 O  34.5430 119.0490  10.2120 O 1 RES   0.0000
5293 O  32.1610 120.4240   6.3220 O 1 RES   0.0000
5294 Si  32.1610 120.4240   0.0000 Si 1 RES   0.0000
5295 O  32.1610 121.7990   0.4860 O 1 RES   0.0000
5296 Si  32.1610  81.8750   0.9730 Si 1 RES   0.0000
5297 O  33.3520 119.7360   0.4860 O 1 RES   0.0000
5298 O  30.9700 119.7360   0.4860 O 1 RES   0.0000
5299 O  32.1610  81.8750   2.4310 O 1 RES   0.0000
5300 Si  32.1610  81.8750   3.8900 Si 1 RES   0.0000
5301 O  32.1610 121.7990   4.3770 O 1 RES   0.0000
5302 Si  32.1610 120.4240   4.8630 Si 1 RES   0.0000
5303 O  33.3520 119.7360   4.3770 O 1 RES   0.0000
5304 O  30.9700 119.7360   4.3770 O 1 RES   0.0000
5305 Si  32.1610 120.4240   7.7810 Si 1 RES   0.0000
5306 O  33.3520 119.7360   8.2670 O 1 RES   0.0000
5307 O  30.9700 119.7360   8.2670 O 1 RES   0.0000
5308 O  32.1610 121.7990   8.2670 O 1 RES   0.0000
5309 Si  32.1610  81.8750   8.7530 Si 1 RES   0.0000
5310 O  32.1610  81.8750  10.2120 O 1 RES   0.0000
5311 O  36.9250 120.4240   6.3220 O 1 RES   0.0000
5312 Si  36.9250 120.4240   0.0000 Si 1 RES   0.0000
5313 O  36.9250 121.7990   0.4860 O 1 RES   0.0000
5314 Si  36.9250  81.8750   0.9730 Si 1 RES   0.0000
5315 O  38.1170 119.7360   0.4860 O 1 RES   0.0000
5316 O  35.7340 119.7360   0.4860 O 1 RES   0.0000
5317 O  36.9250  81.8750   2.4310 O 1 RES   0.0000
5318 Si  36.9250  81.8750   3.8900 Si 1 RES   0.0000
5319 O  36.9250 121.7990   4.3770 O 1 RES   0.0000
5320 Si  36.9250 120.4240   4.8630 Si 1 RES   0.0000
5321 O  38.1170 119.7360   4.3770 O 1 RES   0.0000
5322 O  35.7340 119.7360   4.3770 O 1 RES   0.0000
5323 Si  36.9250 120.4240   7.7810 Si 1 RES   0.0000
5324 O  38.1170 119.7360   8.2670 O 1 RES   0.0000
5325 O  35.7340 119.7360   8.2670 O 1 RES   0.0000
5326 O  36.9250 121.7990   8.2670 O 1 RES   0.0000
5327 Si  36.9250  81.8750   8.7530 Si 1 RES   0.0000
5328 O  36.9250  81.8750  10.2120 O 1 RES   0.0000
5329 O  39.3080 116.2980   6.3220 O 1 RES   0.0000
5330 Si  39.3080 116.2980   0.0000 Si 1 RES   0.0000
5331 O  39.3080 117.6730   0.4860 O 1 RES   0.0000
5332 Si  39.3080 119.0490   0.9730 Si 1 RES   0.0000
5333 O  40.4990 115.6100   0.4860 O 1 RES   0.0000
5334 O  38.1170 115.6100   0.4860 O 1 RES   0.0000
5335 O  39.3080 119.0490   2.4310 O 1 RES   0.0000
5336 Si  39.3080 119.0490   3.8900 Si 1 RES   0.0000
5337 O  39.3080 117.6730   4.3770 O 1 RES   0.0000
5338 Si  39.3080 116.2980   4.8630 Si 1 RES   0.0000
5339 O  40.4990 115.6100   4.3770 O 1 RES   0.0000
5340 O  38.1170 115.6100   4.3770 O 1 RES   0.0000
5341 Si  39.3080 116.2980   7.7810 Si 1 RES   0.0000
5342 O  40.4990 115.6100   8.2670 O 1 RES   0.0000
5343 O  38.1170 115.6100   8.2670 O 1 RES   0.0000
5344 O  39.3080 117.6730   8.2670 O 1 RES   0.0000
5345 Si  39.3080 119.0490   8.7530 Si 1 RES   0.0000
5346 O  39.3080 119.0490  10.2120 O 1 RES   0.0000
5347 O  44.0720 116.2980   6.3220 O 1 RES   0.0000
5348 Si  44.0720 116.2980   0.0000 Si 1 RES   0.0000
5349 O  44.0720 117.6730   0.4860 O 1 RES   0.0000
5350 Si  44.0720 119.0490   0.9730 Si 1 RES   0.0000
5351 O  45.2640 115.6100   0.4860 O 1 RES   0.0000
5352 O  42.8810 115.6100   0.4860 O 1 RES   0.0000
5353 O  44.0720 119.0490   2.4310 O 1 RES   0.0000
5354 Si  44.0720 119.0490   3.8900 Si 1 RES   0.0000
5355 O  44.0720 117.6730   4.3770 O 1 RES   0.0000
5356 Si  44.0720 116.2980   4.8630 Si 1 RES   0.0000
5357 O  45.2640 115.6100   4.3770 O 1 RES   0.0000
5358 O  42.8810 115.6100   4.3770 O 1 RES   0.0000
5359 Si  44.0720 116.2980   7.7810 Si 1 RES   0.0000
5360 O  45.2640 115.6100   8.2670 O 1 RES   0.0000
5361 O  42.8810 115.6100   8.2670 O 1 RES   0.0000
5362 O  44.0720 117.6730   8.2670 O 1 RES   0.0000
5363 Si  44.0720 119.0490   8.7530 Si 1 RES   0.0000
5364 O  44.0720 119.0490  10.2120 O 1 RES   0.0000
5365 O  41.6900 120.4240   6.3220 O 1 RES   0.0000
5366 Si  41.6900 120.4240   0.0000 Si 1 RES   0.0000
5367 O  41.6900 121.7990   0.4860 O 1 RES   0.0000
5368 Si  41.6900  81.8750   0.9730 Si 1 RES   0.0000
5369 O  42.8810 119.7360   0.4860 O 1 RES   0.0000
5370 O  40.4990 119.7360   0.4860 O 1 RES   0.0000
5371 O  41.6900  81.8750   2.4310 O 1 RES   0.0000
5372 Si  41.6900  81.8750   3.8900 Si 1 RES   0.0000
5373 O  41.6900 121.7990   4.3770 O 1 RES   0.0000
5374 Si  41.6900 120.4240   4.8630 Si 1 RES   0.0000
5375 O  42.8810 119.7360   4.3770 O 1 RES   0.0000
5376 O  40.4990 119.7360   4.3770 O 1 RES   0.0000
5377 Si  41.6900 120.4240   7.7810 Si 1 RES   0.0000
5378 O  42.8810 119.7360   8.2670 O 1 RES   0.0000
5379 O  40.4990 119.7360   8.2670 O 1 RES   0.0000
5380 O  41.6900 121.7990   8.2670 O 1 RES   0.0000
5381 Si  41.6900  81.8750   8.7530 Si 1 RES   0.0000
5382 O  41.6900  81.8750  10.2120 O 1 RES   0.0000
5383 O  46.4550 120.4240   6.3220 O 1 RES   0.0000
5384 Si  46.4550 120.4240   0.0000 Si 1 RES   0.0000
5385 O  46.4550 121.7990   0.4860 O 1 RES   0.0000
5386 Si  46.4550  81.8750   0.9730 Si 1 RES   0.0000
5387 O  -0.0430 119.7360   0.4860 O 1 RES   0.0000
5388 O  45.2640 119.7360   0.4860 O 1 RES   0.0000
5389 O  46.4550  81.8750   2.4310 O 1 RES   0.0000
5390 Si  46.4550  81.8750   3.8900 Si 1 RES   0.0000
5391 O  46.4550 121.7990   4.3770 O 1 RES   0.0000
5392 Si  46.4550 120.4240   4.8630 Si 1 RES   0.0000
5393 O  -0.0430 119.7360   4.3770 O 1 RES   0.0000
5394 O  45.2640 119.7360   4.3770 O 1 RES   0.0000
5395 Si  46.4550 120.4240   7.7810 Si 1 RES   0.0000
5396 O  -0.0430 119.7360   8.2670 O 1 RES   0.0000
5397 O  45.2640 119.7360   8.2670 O 1 RES   0.0000
5398 O  46.4550 121.7990   8.2670 O 1 RES   0.0000
5399 Si  46.4550  81.8750   8.7530 Si 1 RES   0.0000
5400 O  46.4550  81.8750  10.2120 O 1 RES   0.0000
5401 O  48.8800   0.6880   6.3220 O 1 RES   0.0000
5402 Si  48.8800   0.6880   0.0000 Si 1 RES   0.0000
5403 O  48.8800   2.0630   0.4860 O 1 RES   0.0000
5404 Si  48.8800   3.4390   0.9730 Si 1 RES   0.0000
5405 O  50.0710   0.0000   0.4860 O 1 RES   0.0000
5406 O  47.6890   0.0000   0.4860 O 1 RES   0.0000
5407 O  48.8800   3.4390   2.4310 O 1 RES   0.0000
5408 Si  48.8800   3.4390   3.8900 Si 1 RES   0.0000
5409 O  48.8800   2.0630   4.3770 O 1 RES   0.0000
5410 Si  48.8800   0.6880   4.8630 Si 1 RES   0.0000
5411 O  50.0710   0.0000   4.3770 O 1 RES   0.0000
5412 O  47.6890   0.0000   4.3770 O 1 RES   0.0000
5413 Si  48.8800   0.6880   7.7810 Si 1 RES   0.0000
5414 O  50.0710   0.0000   8.2670 O 1 RES   0.0000
5415 O  47.6890   0.0000   8.2670 O 1 RES   0.0000
5416 O  48.8800   2.0630   8.2670 O 1 RES   0.0000
5417 Si  48.8800   3.4390   8.7530 Si 1 RES   0.0000
5418 O  48.8800   3.4390  10.2120 O 1 RES   0.0000
5419 O  53.6450   0.6880   6.3220 O 1 RES   0.0000
5420 Si  53.6450   0.6880   0.0000 Si 1 RES   0.0000
5421 O  53.6450   2.0630   0.4860 O 1 RES   0.0000
5422 Si  53.6450   3.4390   0.9730 Si 1 RES   0.0000
5423 O  54.8360   0.0000   0.4860 O 1 RES   0.0000
5424 O  52.4540   0.0000   0.4860 O 1 RES   0.0000
5425 O  53.6450   3.4390   2.4310 O 1 RES   0.0000
5426 Si  53.6450   3.4390   3.8900 Si 1 RES   0.0000
5427 O  53.6450   2.0630   4.3770 O 1 RES   0.0000
5428 Si  53.6450   0.6880   4.8630 Si 1 RES   0.0000
5429 O  54.8360   0.0000   4.3770 O 1 RES   0.0000
5430 O  52.4540   0.0000   4.3770 O 1 RES   0.0000
5431 Si  53.6450   0.6880   7.7810 Si 1 RES   0.0000
5432 O  54.8360   0.0000   8.2670 O 1 RES   0.0000
5433 O  52.4540   0.0000   8.2670 O 1 RES   0.0000
5434 O  53.6450   2.0630   8.2670 O 1 RES   0.0000
5435 Si  53.6450   3.4390   8.7530 Si 1 RES   0.0000
5436 O  53.6450   3.4390  10.2120 O 1 RES   0.0000
5437 O  51.2620   4.8140   6.3220 O 1 RES   0.0000
5438 Si  51.2620   4.8140   0.0000 Si 1 RES   0.0000
5439 O  51.2620   6.1890   0.4860 O 1 RES   0.0000
5440 Si  51.2620   7.5650   0.9730 Si 1 RES   0.0000
5441 O  52.4540   4.1260   0.4860 O 1 RES   0.0000
5442 O  50.0710   4.1260   0.4860 O 1 RES   0.0000
5443 O  51.2620   7.5650   2.4310 O 1 RES   0.0000
5444 Si  51.2620   7.5650   3.8900 Si 1 RES   0.0000
5445 O  51.2620   6.1890   4.3770 O 1 RES   0.0000
5446 Si  51.2620   4.8140   4.8630 Si 1 RES   0.0000
5447 O  52.4540   4.1260   4.3770 O 1 RES   0.0000
5448 O  50.0710   4.1260   4.3770 O 1 RES   0.0000
5449 Si  51.2620   4.8140   7.7810 Si 1 RES   0.0000
5450 O  52.4540   4.1260   8.2670 O 1 RES   0.0000
5451 O  50.0710   4.1260   8.2670 O 1 RES   0.0000
5452 O  51.2620   6.1890   8.2670 O 1 RES   0.0000
5453 Si  51.2620   7.5650   8.7530 Si 1 RES   0.0000
5454 O  51.2620   7.5650  10.2120 O 1 RES   0.0000
5455 O  56.0270   4.8140   6.3220 O 1 RES   0.0000
5456 Si  56.0270   4.8140   0.0000 Si 1 RES   0.0000
5457 O  56.0270   6.1890   0.4860 O 1 RES   0.0000
5458 Si  56.0270   7.5650   0.9730 Si 1 RES   0.0000
5459 O  57.2180   4.1260   0.4860 O 1 RES   0.0000
5460 O  54.8360   4.1260   0.4860 O 1 RES   0.0000
5461 O  56.0270   7.5650   2.4310 O 1 RES   0.0000
5462 Si  56.0270   7.5650   3.8900 Si 1 RES   0.0000
5463 O  56.0270   6.1890   4.3770 O 1 RES   0.0000
5464 Si  56.0270   4.8140   4.8630 Si 1 RES   0.0000
5465 O  57.2180   4.1260   4.3770 O 1 RES   0.0000
5466 O  54.8360   4.1260   4.3770 O 1 RES   0.0000
5467 Si  56.0270   4.8140   7.7810 Si 1 RES   0.0000
5468 O  57.2180   4.1260   8.2670 O 1 RES   0.0000
5469 O  54.8360   4.1260   8.2670 O 1 RES   0.0000
5470 O  56.0270   6.1890   8.2670 O 1 RES   0.0000
5471 Si  56.0270   7.5650   8.7530 Si 1 RES   0.0000
5472 O  56.0270   7.5650  10.2120 O 1 RES   0.0000
5473 O  58.4090   0.6880   6.3220 O 1 RES   0.0000
5474 Si  58.4090   0.6880   0.0000 Si 1 RES   0.0000
5475 O  58.4090   2.0630   0.4860 O 1 RES   0.0000
5476 Si  58.4090   3.4390   0.9730 Si 1 RES   0.0000
5477 O  59.6010   0.0000   0.4860 O 1 RES   0.0000
5478 O  57.2180   0.0000   0.4860 O 1 RES   0.0000
5479 O  58.4090   3.4390   2.4310 O 1 RES   0.0000
5480 Si  58.4090   3.4390   3.8900 Si 1 RES   0.0000
5481 O  58.4090   2.0630   4.3770 O 1 RES   0.0000
5482 Si  58.4090   0.6880   4.8630 Si 1 RES   0.0000
5483 O  59.6010   0.0000   4.3770 O 1 RES   0.0000
5484 O  57.2180   0.0000   4.3770 O 1 RES   0.0000
5485 Si  58.4090   0.6880   7.7810 Si 1 RES   0.0000
5486 O  59.6010   0.0000   8.2670 O 1 RES   0.0000
5487 O  57.2180   0.0000   8.2670 O 1 RES   0.0000
5488 O  58.4090   2.0630   8.2670 O 1 RES   0.0000
5489 Si  58.4090   3.4390   8.7530 Si 1 RES   0.0000
5490 O  58.4090   3.4390  10.2120 O 1 RES   0.0000
5491 O  63.1740   0.6880   6.3220 O 1 RES   0.0000
5492 Si  63.1740   0.6880   0.0000 Si 1 RES   0.0000
5493 O  63.1740   2.0630   0.4860 O 1 RES   0.0000
5494 Si  63.1740   3.4390   0.9730 Si 1 RES   0.0000
5495 O  64.3650   0.0000   0.4860 O 1 RES   0.0000
5496 O  61.9830   0.0000   0.4860 O 1 RES   0.0000
5497 O  63.1740   3.4390   2.4310 O 1 RES   0.0000
5498 Si  63.1740   3.4390   3.8900 Si 1 RES   0.0000
5499 O  63.1740   2.0630   4.3770 O 1 RES   0.0000
5500 Si  63.1740   0.6880   4.8630 Si 1 RES   0.0000
5501 O  64.3650   0.0000   4.3770 O 1 RES   0.0000
5502 O  61.9830   0.0000   4.3770 O 1 RES   0.0000
5503 Si  63.1740   0.6880   7.7810 Si 1 RES   0.0000
5504 O  64.3650   0.0000   8.2670 O 1 RES   0.0000
5505 O  61.9830   0.0000   8.2670 O 1 RES   0.0000
5506 O  63.1740   2.0630   8.2670 O 1 RES   0.0000
5507 Si  63.1740   3.4390   8.7530 Si 1 RES   0.0000
5508 O  63.1740   3.4390  10.2120 O 1 RES   0.0000
5509 O  60.7920   4.8140   6.3220 O 1 RES   0.0000
5510 Si  60.7920   4.8140   0.0000 Si 1 RES   0.0000
5511 O  60.7920   6.1890   0.4860 O 1 RES   0.0000
5512 Si  60.7920   7.5650   0.9730 Si 1 RES   0.0000
5513 O  61.9830   4.1260   0.4860 O 1 RES   0.0000
5514 O  59.6010   4.1260   0.4860 O 1 RES   0.0000
5515 O  60.7920   7.5650   2.4310 O 1 RES   0.0000
5516 Si  60.7920   7.5650   3.8900 Si 1 RES   0.0000
5517 O  60.7920   6.1890   4.3770 O 1 RES   0.0000
5518 Si  60.7920   4.8140   4.8630 Si 1 RES   0.0000
5519 O  61.9830   4.1260   4.3770 O 1 RES   0.0000
5520 O  59.6010   4.1260   4.3770 O 1 RES   0.0000
5521 Si  60.7920   4.8140   7.7810 Si 1 RES   0.0000
5522 O  61.9830   4.1260   8.2670 O 1 RES   0.0000
5523 O  59.6010   4.1260   8.2670 O 1 RES   0.0000
5524 O  60.7920   6.1890   8.2670 O 1 RES   0.0000
5525 Si  60.7920   7.5650   8.7530 Si 1 RES   0.0000
5526 O  60.7920   7.5650  10.2120 O 1 RES   0.0000
5527 O  65.5560   4.8140   6.3220 O 1 RES   0.0000
5528 Si  65.5560   4.8140   0.0000 Si 1 RES   0.0000
5529 O  65.5560   6.1890   0.4860 O 1 RES   0.0000
5530 Si  65.5560   7.5650   0.9730 Si 1 RES   0.0000
5531 O  66.7470   4.1260   0.4860 O 1 RES   0.0000
5532 O  64.3650   4.1260   0.4860 O 1 RES   0.0000
5533 O  65.5560   7.5650   2.4310 O 1 RES   0.0000
5534 Si  65.5560   7.5650   3.8900 Si 1 RES   0.0000
5535 O  65.5560   6.1890   4.3770 O 1 RES   0.0000
5536 Si  65.5560   4.8140   4.8630 Si 1 RES   0.0000
5537 O  66.7470   4.1260   4.3770 O 1 RES   0.0000
5538 O  64.3650   4.1260   4.3770 O 1 RES   0.0000
5539 Si  65.5560   4.8140   7.7810 Si 1 RES   0.0000
5540 O  66.7470   4.1260   8.2670 O 1 RES   0.0000
5541 O  64.3650   4.1260   8.2670 O 1 RES   0.0000
5542 O  65.5560   6.1890   8.2670 O 1 RES   0.0000
5543 Si  65.5560   7.5650   8.7530 Si 1 RES   0.0000
5544 O  65.5560   7.5650  10.2120 O 1 RES   0.0000
5545 O  67.9390   0.6880   6.3220 O 1 RES   0.0000
5546 Si  67.9390   0.6880   0.0000 Si 1 RES   0.0000
5547 O  67.9390   2.0630   0.4860 O 1 RES   0.0000
5548 Si  67.9390   3.4390   0.9730 Si 1 RES   0.0000
5549 O  69.1300   0.0000   0.4860 O 1 RES   0.0000
5550 O  66.7470   0.0000   0.4860 O 1 RES   0.0000
5551 O  67.9390   3.4390   2.4310 O 1 RES   0.0000
5552 Si  67.9390   3.4390   3.8900 Si 1 RES   0.0000
5553 O  67.9390   2.0630   4.3770 O 1 RES   0.0000
5554 Si  67.9390   0.6880   4.8630 Si 1 RES   0.0000
5555 O  69.1300   0.0000   4.3770 O 1 RES   0.0000
5556 O  66.7470   0.0000   4.3770 O 1 RES   0.0000
5557 Si  67.9390   0.6880   7.7810 Si 1 RES   0.0000
5558 O  69.1300   0.0000   8.2670 O 1 RES   0.0000
5559 O  66.7470   0.0000   8.2670 O 1 RES   0.0000
5560 O  67.9390   2.0630   8.2670 O 1 RES   0.0000
5561 Si  67.9390   3.4390   8.7530 Si 1 RES   0.0000
5562 O  67.9390   3.4390  10.2120 O 1 RES   0.0000
5563 O  72.7030   0.6880   6.3220 O 1 RES   0.0000
5564 Si  72.7030   0.6880   0.0000 Si 1 RES   0.0000
5565 O  72.7030   2.0630   0.4860 O 1 RES   0.0000
5566 Si  72.7030   3.4390   0.9730 Si 1 RES   0.0000
5567 O  73.8940   0.0000   0.4860 O 1 RES   0.0000
5568 O  71.5120   0.0000   0.4860 O 1 RES   0.0000
5569 O  72.7030   3.4390   2.4310 O 1 RES   0.0000
5570 Si  72.7030   3.4390   3.8900 Si 1 RES   0.0000
5571 O  72.7030   2.0630   4.3770 O 1 RES   0.0000
5572 Si  72.7030   0.6880   4.8630 Si 1 RES   0.0000
5573 O  73.8940   0.0000   4.3770 O 1 RES   0.0000
5574 O  71.5120   0.0000   4.3770 O 1 RES   0.0000
5575 Si  72.7030   0.6880   7.7810 Si 1 RES   0.0000
5576 O  73.8940   0.0000   8.2670 O 1 RES   0.0000
5577 O  71.5120   0.0000   8.2670 O 1 RES   0.0000
5578 O  72.7030   2.0630   8.2670 O 1 RES   0.0000
5579 Si  72.7030   3.4390   8.7530 Si 1 RES   0.0000
5580 O  72.7030   3.4390  10.2120 O 1 RES   0.0000
5581 O  70.3210   4.8140   6.3220 O 1 RES   0.0000
5582 Si  70.3210   4.8140   0.0000 Si 1 RES   0.0000
5583 O  70.3210   6.1890   0.4860 O 1 RES   0.0000
5584 Si  70.3210   7.5650   0.9730 Si 1 RES   0.0000
5585 O  71.5120   4.1260   0.4860 O 1 RES   0.0000
5586 O  69.1300   4.1260   0.4860 O 1 RES   0.0000
5587 O  70.3210   7.5650   2.4310 O 1 RES   0.0000
5588 Si  70.3210   7.5650   3.8900 Si 1 RES   0.0000
5589 O  70.3210   6.1890   4.3770 O 1 RES   0.0000
5590 Si  70.3210   4.8140   4.8630 Si 1 RES   0.0000
5591 O  71.5120   4.1260   4.3770 O 1 RES   0.0000
5592 O  69.1300   4.1260   4.3770 O 1 RES   0.0000
5593 Si  70.3210   4.8140   7.7810 Si 1 RES   0.0000
5594 O  71.5120   4.1260   8.2670 O 1 RES   0.0000
5595 O  69.1300   4.1260   8.2670 O 1 RES   0.0000
5596 O  70.3210   6.1890   8.2670 O 1 RES   0.0000
5597 Si  70.3210   7.5650   8.7530 Si 1 RES   0.0000
5598 O  70.3210   7.5650  10.2120 O 1 RES   0.0000
5599 O  75.0850   4.8140   6.3220 O 1 RES   0.0000
5600 Si  75.0850   4.8140   0.0000 Si 1 RES   0.0000
5601 O  75.0850   6.1890   0.4860 O 1 RES   0.0000
5602 Si  75.0850   7.5650   0.9730 Si 1 RES   0.0000
5603 O  76.2760   4.1260   0.4860 O 1 RES   0.0000
5604 O  73.8940   4.1260   0.4860 O 1 RES   0.0000
5605 O  75.0850   7.5650   2.4310 O 1 RES   0.0000
5606 Si  75.0850   7.5650   3.8900 Si 1 RES   0.0000
5607 O  75.0850   6.1890   4.3770 O 1 RES   0.0000
5608 Si  75.0850   4.8140   4.8630 Si 1 RES   0.0000
5609 O  76.2760   4.1260   4.3770 O 1 RES   0.0000
5610 O  73.8940   4.1260   4.3770 O 1 RES   0.0000
5611 Si  75.0850   4.8140   7.7810 Si 1 RES   0.0000
5612 O  76.2760   4.1260   8.2670 O 1 RES   0.0000
5613 O  73.8940   4.1260   8.2670 O 1 RES   0.0000
5614 O  75.0850   6.1890   8.2670 O 1 RES   0.0000
5615 Si  75.0850   7.5650   8.7530 Si 1 RES   0.0000
5616 O  75.0850   7.5650  10.2120 O 1 RES   0.0000
5617 O  77.4680   0.6880   6.3220 O 1 RES   0.0000
5618 Si  77.4680   0.6880   0.0000 Si 1 RES   0.0000
5619 O  77.4680   2.0630   0.4860 O 1 RES   0.0000
5620 Si  77.4680   3.4390   0.9730 Si 1 RES   0.0000
5621 O  78.6590   0.0000   0.4860 O 1 RES   0.0000
5622 O  76.2760   0.0000   0.4860 O 1 RES   0.0000
5623 O  77.4680   3.4390   2.4310 O 1 RES   0.0000
5624 Si  77.4680   3.4390   3.8900 Si 1 RES   0.0000
5625 O  77.4680   2.0630   4.3770 O 1 RES   0.0000
5626 Si  77.4680   0.6880   4.8630 Si 1 RES   0.0000
5627 O  78.6590   0.0000   4.3770 O 1 RES   0.0000
5628 O  76.2760   0.0000   4.3770 O 1 RES   0.0000
5629 Si  77.4680   0.6880   7.7810 Si 1 RES   0.0000
5630 O  78.6590   0.0000   8.2670 O 1 RES   0.0000
5631 O  76.2760   0.0000   8.2670 O 1 RES   0.0000
5632 O  77.4680   2.0630   8.2670 O 1 RES   0.0000
5633 Si  77.4680   3.4390   8.7530 Si 1 RES   0.0000
5634 O  77.4680   3.4390  10.2120 O 1 RES   0.0000
5635 O  82.2320   0.6880   6.3220 O 1 RES   0.0000
5636 Si  82.2320   0.6880   0.0000 Si 1 RES   0.0000
5637 O  82.2320   2.0630   0.4860 O 1 RES   0.0000
5638 Si  82.2320   3.4390   0.9730 Si 1 RES   0.0000
5639 O  83.4230   0.0000   0.4860 O 1 RES   0.0000
5640 O  81.0410   0.0000   0.4860 O 1 RES   0.0000
5641 O  82.2320   3.4390   2.4310 O 1 RES   0.0000
5642 Si  82.2320   3.4390   3.8900 Si 1 RES   0.0000
5643 O  82.2320   2.0630   4.3770 O 1 RES   0.0000
5644 Si  82.2320   0.6880   4.8630 Si 1 RES   0.0000
5645 O  83.4230   0.0000   4.3770 O 1 RES   0.0000
5646 O  81.0410   0.0000   4.3770 O 1 RES   0.0000
5647 Si  82.2320   0.6880   7.7810 Si 1 RES   0.0000
5648 O  83.4230   0.0000   8.2670 O 1 RES   0.0000
5649 O  81.0410   0.0000   8.2670 O 1 RES   0.0000
5650 O  82.2320   2.0630   8.2670 O 1 RES   0.0000
5651 Si  82.2320   3.4390   8.7530 Si 1 RES   0.0000
5652 O  82.2320   3.4390  10.2120 O 1 RES   0.0000
5653 O  79.8500   4.8140   6.3220 O 1 RES   0.0000
5654 Si  79.8500   4.8140   0.0000 Si 1 RES   0.0000
5655 O  79.8500   6.1890   0.4860 O 1 RES   0.0000
5656 Si  79.8500   7.5650   0.9730 Si 1 RES   0.0000
5657 O  81.0410   4.1260   0.4860 O 1 RES   0.0000
5658 O  78.6590   4.1260   0.4860 O 1 RES   0.0000
5659 O  79.8500   7.5650   2.4310 O 1 RES   0.0000
5660 Si  79.8500   7.5650   3.8900 Si 1 RES   0.0000
5661 O  79.8500   6.1890   4.3770 O 1 RES   0.0000
5662 Si  79.8500   4.8140   4.8630 Si 1 RES   0.0000
5663 O  81.0410   4.1260   4.3770 O 1 RES   0.0000
5664 O  78.6590   4.1260   4.3770 O 1 RES   0.0000
5665 Si  79.8500   4.8140   7.7810 Si 1 RES   0.0000
5666 O  81.0410   4.1260   8.2670 O 1 RES   0.0000
5667 O  78.6590   4.1260   8.2670 O 1 RES   0.0000
5668 O  79.8500   6.1890   8.2670 O 1 RES   0.0000
5669 Si  79.8500   7.5650   8.7530 Si 1 RES   0.0000
5670 O  79.8500   7.5650  10.2120 O 1 RES   0.0000
5671 O  84.6140   4.8140   6.3220 O 1 RES   0.0000
5672 Si  84.6140   4.8140   0.0000 Si 1 RES   0.0000
5673 O  84.6140   6.1890   0.4860 O 1 RES   0.0000
5674 Si  84.6140   7.5650   0.9730 Si 1 RES   0.0000
5675 O  85.8060   4.1260   0.4860 O 1 RES   0.0000
5676 O  83.4230   4.1260   0.4860 O 1 RES   0.0000
5677 O  84.6140   7.5650   2.4310 O 1 RES   0.0000
5678 Si  84.6140   7.5650   3.8900 Si 1 RES   0.0000
5679 O  84.6140   6.1890   4.3770 O 1 RES   0.0000
5680 Si  84.6140   4.8140   4.8630 Si 1 RES   0.0000
5681 O  85.8060   4.1260   4.3770 O 1 RES   0.0000
5682 O  83.4230   4.1260   4.3770 O 1 RES   0.0000
5683 Si  84.6140   4.8140   7.7810 Si 1 RES   0.0000
5684 O  85.8060   4.1260   8.2670 O 1 RES   0.0000
5685 O  83.4230   4.1260   8.2670 O 1 RES   0.0000
5686 O  84.6140   6.1890   8.2670 O 1 RES   0.0000
5687 Si  84.6140   7.5650   8.7530 Si 1 RES   0.0000
5688 O  84.6140   7.5650  10.2120 O 1 RES   0.0000
5689 O  86.9970   0.6880   6.3220 O 1 RES   0.0000
5690 Si  86.9970   0.6880   0.0000 Si 1 RES   0.0000
5691 O  86.9970   2.0630   0.4860 O 1 RES   0.0000
5692 Si  86.9970   3.4390   0.9730 Si 1 RES   0.0000
5693 O  88.1880   0.0000   0.4860 O 1 RES   0.0000
5694 O  85.8060   0.0000   0.4860 O 1 RES   0.0000
5695 O  86.9970   3.4390   2.4310 O 1 RES   0.0000
5696 Si  86.9970   3.4390   3.8900 Si 1 RES   0.0000
5697 O  86.9970   2.0630   4.3770 O 1 RES   0.0000
5698 Si  86.9970   0.6880   4.8630 Si 1 RES   0.0000
5699 O  88.1880   0.0000   4.3770 O 1 RES   0.0000
5700 O  85.8060   0.0000   4.3770 O 1 RES   0.0000
5701 Si  86.9970   0.6880   7.7810 Si 1 RES   0.0000
5702 O  88.1880   0.0000   8.2670 O 1 RES   0.0000
5703 O  85.8060   0.0000   8.2670 O 1 RES   0.0000
5704 O  86.9970   2.0630   8.2670 O 1 RES   0.0000
5705 Si  86.9970   3.4390   8.7530 Si 1 RES   0.0000
5706 O  86.9970   3.4390  10.2120 O 1 RES   0.0000
5707 O  91.7610   0.6880   6.3220 O 1 RES   0.0000
5708 Si  91.7610   0.6880   0.0000 Si 1 RES   0.0000
5709 O  91.7610   2.0630   0.4860 O 1 RES   0.0000
5710 Si  91.7610   3.4390   0.9730 Si 1 RES   0.0000
5711 O  92.9530   0.0000   0.4860 O 1 RES   0.0000
5712 O  90.5700   0.0000   0.4860 O 1 RES   0.0000
5713 O  91.7610   3.4390   2.4310 O 1 RES   0.0000
5714 Si  91.7610   3.4390   3.8900 Si 1 RES   0.0000
5715 O  91.7610   2.0630   4.3770 O 1 RES   0.0000
5716 Si  91.7610   0.6880   4.8630 Si 1 RES   0.0000
5717 O  92.9530   0.0000   4.3770 O 1 RES   0.0000
5718 O  90.5700   0.0000   4.3770 O 1 RES   0.0000
5719 Si  91.7610   0.6880   7.7810 Si 1 RES   0.0000
5720 O  92.9530   0.0000   8.2670 O 1 RES   0.0000
5721 O  90.5700   0.0000   8.2670 O 1 RES   0.0000
5722 O  91.7610   2.0630   8.2670 O 1 RES   0.0000
5723 Si  91.7610   3.4390   8.7530 Si 1 RES   0.0000
5724 O  91.7610   3.4390  10.2120 O 1 RES   0.0000
5725 O  89.3790   4.8140   6.3220 O 1 RES   0.0000
5726 Si  89.3790   4.8140   0.0000 Si 1 RES   0.0000
5727 O  89.3790   6.1890   0.4860 O 1 RES   0.0000
5728 Si  89.3790   7.5650   0.9730 Si 1 RES   0.0000
5729 O  90.5700   4.1260   0.4860 O 1 RES   0.0000
5730 O  88.1880   4.1260   0.4860 O 1 RES   0.0000
5731 O  89.3790   7.5650   2.4310 O 1 RES   0.0000
5732 Si  89.3790   7.5650   3.8900 Si 1 RES   0.0000
5733 O  89.3790   6.1890   4.3770 O 1 RES   0.0000
5734 Si  89.3790   4.8140   4.8630 Si 1 RES   0.0000
5735 O  90.5700   4.1260   4.3770 O 1 RES   0.0000
5736 O  88.1880   4.1260   4.3770 O 1 RES   0.0000
5737 Si  89.3790   4.8140   7.7810 Si 1 RES   0.0000
5738 O  90.5700   4.1260   8.2670 O 1 RES   0.0000
5739 O  88.1880   4.1260   8.2670 O 1 RES   0.0000
5740 O  89.3790   6.1890   8.2670 O 1 RES   0.0000
5741 Si  89.3790   7.5650   8.7530 Si 1 RES   0.0000
5742 O  89.3790   7.5650  10.2120 O 1 RES   0.0000
5743 O  94.1440   4.8140   6.3220 O 1 RES   0.0000
5744 Si  94.1440   4.8140   0.0000 Si 1 RES   0.0000
5745 O  94.1440   6.1890   0.4860 O 1 RES   0.0000
5746 Si  94.1440   7.5650   0.9730 Si 1 RES   0.0000
5747 O  47.6460   4.1260   0.4860 O 1 RES   0.0000
5748 O  92.9530   4.1260   0.4860 O 1 RES   0.0000
5749 O  94.1440   7.5650   2.4310 O 1 RES   0.0000
5750 Si  94.1440   7.5650   3.8900 Si 1 RES   0.0000
5751 O  94.1440   6.1890   4.3770 O 1 RES   0.0000
5752 Si  94.1440   4.8140   4.8630 Si 1 RES   0.0000
5753 O  47.6460   4.1260   4.3770 O 1 RES   0.0000
5754 O  92.9530   4.1260   4.3770 O 1 RES   0.0000
5755 Si  94.1440   4.8140   7.7810 Si 1 RES   0.0000
5756 O  47.6460   4.1260   8.2670 O 1 RES   0.0000
5757 O  92.9530   4.1260   8.2670 O 1 RES   0.0000
5758 O  94.1440   6.1890   8.2670 O 1 RES   0.0000
5759 Si  94.1440   7.5650   8.7530 Si 1 RES   0.0000
5760 O  94.1440   7.5650  10.2120 O 1 RES   0.0000
5761 O  48.8800   8.9400   6.3220 O 1 RES   0.0000
5762 Si  48.8800   8.9400   0.0000 Si 1 RES   0.0000
5763 O  48.8800  10.3160   0.4860 O 1 RES   0.0000
5764 Si  48.8800  11.6910   0.9730 Si 1 RES   0.0000
5765 O  50.0710   8.2530   0.4860 O 1 RES   0.0000
5766 O  47.6890   8.2530   0.4860 O 1 RES   0.0000
5767 O  48.8800  11.6910   2.4310 O 1 RES   0.0000
5768 Si  48.8800  11.6910   3.8900 Si 1 RES   0.0000
5769 O  48.8800  10.3160   4.3770 O 1 RES   0.0000
5770 Si  48.8800   8.9400   4.8630 Si 1 RES   0.0000
5771 O  50.0710   8.2530   4.3770 O 1 RES   0.0000
5772 O  47.6890   8.2530   4.3770 O 1 RES   0.0000
5773 Si  48.8800   8.9400   7.7810 Si 1 RES   0.0000
5774 O  50.0710   8.2530   8.2670 O 1 RES   0.0000
5775 O  47.6890   8.2530   8.2670 O 1 RES   0.0000
5776 O  48.8800  10.3160   8.2670 O 1 RES   0.0000
5777 Si  48.8800  11.6910   8.7530 Si 1 RES   0.0000
5778 O  48.8800  11.6910  10.2120 O 1 RES   0.0000
5779 O  53.6450   8.9400   6.3220 O 1 RES   0.0000
5780 Si  53.6450   8.9400   0.0000 Si 1 RES   0.0000
5781 O  53.6450  10.3160   0.4860 O 1 RES   0.0000
5782 Si  53.6450  11.6910   0.9730 Si 1 RES   0.0000
5783 O  54.8360   8.2530   0.4860 O 1 RES   0.0000
5784 O  52.4540   8.2530   0.4860 O 1 RES   0.0000
5785 O  53.6450  11.6910   2.4310 O 1 RES   0.0000
5786 Si  53.6450  11.6910   3.8900 Si 1 RES   0.0000
5787 O  53.6450  10.3160   4.3770 O 1 RES   0.0000
5788 Si  53.6450   8.9400   4.8630 Si 1 RES   0.0000
5789 O  54.8360   8.2530   4.3770 O 1 RES   0.0000
5790 O  52.4540   8.2530   4.3770 O 1 RES   0.0000
5791 Si  53.6450   8.9400   7.7810 Si 1 RES   0.0000
5792 O  54.8360   8.2530   8.2670 O 1 RES   0.0000
5793 O  52.4540   8.2530   8.2670 O 1 RES   0.0000
5794 O  53.6450  10.3160   8.2670 O 1 RES   0.0000
5795 Si  53.6450  11.6910   8.7530 Si 1 RES   0.0000
5796 O  53.6450  11.6910  10.2120 O 1 RES   0.0000
5797 O  51.2620  13.0660   6.3220 O 1 RES   0.0000
5798 Si  51.2620  13.0660   0.0000 Si 1 RES   0.0000
5799 O  51.2620  14.4420   0.4860 O 1 RES   0.0000
5800 Si  51.2620  15.8170   0.9730 Si 1 RES   0.0000
5801 O  52.4540  12.3790   0.4860 O 1 RES   0.0000
5802 O  50.0710  12.3790   0.4860 O 1 RES   0.0000
5803 O  51.2620  15.8170   2.4310 O 1 RES   0.0000
5804 Si  51.2620  15.8170   3.8900 Si 1 RES   0.0000
5805 O  51.2620  14.4420   4.3770 O 1 RES   0.0000
5806 Si  51.2620  13.0660   4.8630 Si 1 RES   0.0000
5807 O  52.4540  12.3790   4.3770 O 1 RES   0.0000
5808 O  50.0710  12.3790   4.3770 O 1 RES   0.0000
5809 Si  51.2620  13.0660   7.7810 Si 1 RES   0.0000
5810 O  52.4540  12.3790   8.2670 O 1 RES   0.0000
5811 O  50.0710  12.3790   8.2670 O 1 RES   0.0000
5812 O  51.2620  14.4420   8.2670 O 1 RES   0.0000
5813 Si  51.2620  15.8170   8.7530 Si 1 RES   0.0000
5814 O  51.2620  15.8170  10.2120 O 1 RES   0.0000
5815 O  56.0270  13.0660   6.3220 O 1 RES   0.0000
5816 Si  56.0270  13.0660   0.0000 Si 1 RES   0.0000
5817 O  56.0270  14.4420   0.4860 O 1 RES   0.0000
5818 Si  56.0270  15.8170   0.9730 Si 1 RES   0.0000
5819 O  57.2180  12.3790   0.4860 O 1 RES   0.0000
5820 O  54.8360  12.3790   0.4860 O 1 RES   0.0000
5821 O  56.0270  15.8170   2.4310 O 1 RES   0.0000
5822 Si  56.0270  15.8170   3.8900 Si 1 RES   0.0000
5823 O  56.0270  14.4420   4.3770 O 1 RES   0.0000
5824 Si  56.0270  13.0660   4.8630 Si 1 RES   0.0000
5825 O  57.2180  12.3790   4.3770 O 1 RES   0.0000
5826 O  54.8360  12.3790   4.3770 O 1 RES   0.0000
5827 Si  56.0270  13.0660   7.7810 Si 1 RES   0.0000
5828 O  57.2180  12.3790   8.2670 O 1 RES   0.0000
5829 O  54.8360  12.3790   8.2670 O 1 RES   0.0000
5830 O  56.0270  14.4420   8.2670 O 1 RES   0.0000
5831 Si  56.0270  15.8170   8.7530 Si 1 RES   0.0000
5832 O  56.0270  15.8170  10.2120 O 1 RES   0.0000
5833 O  58.4090   8.9400   6.3220 O 1 RES   0.0000
5834 Si  58.4090   8.9400   0.0000 Si 1 RES   0.0000
5835 O  58.4090  10.3160   0.4860 O 1 RES   0.0000
5836 Si  58.4090  11.6910   0.9730 Si 1 RES   0.0000
5837 O  59.6010   8.2530   0.4860 O 1 RES   0.0000
5838 O  57.2180   8.2530   0.4860 O 1 RES   0.0000
5839 O  58.4090  11.6910   2.4310 O 1 RES   0.0000
5840 Si  58.4090  11.6910   3.8900 Si 1 RES   0.0000
5841 O  58.4090  10.3160   4.3770 O 1 RES   0.0000
5842 Si  58.4090   8.9400   4.8630 Si 1 RES   0.0000
5843 O  59.6010   8.2530   4.3770 O 1 RES   0.0000
5844 O  57.2180   8.2530   4.3770 O 1 RES   0.0000
5845 Si  58.4090   8.9400   7.7810 Si 1 RES   0.0000
5846 O  59.6010   8.2530   8.2670 O 1 RES   0.0000
5847 O  57.2180   8.2530   8.2670 O 1 RES   0.0000
5848 O  58.4090  10.3160   8.2670 O 1 RES   0.0000
5849 Si  58.4090  11.6910   8.7530 Si 1 RES   0.0000
5850 O  58.4090  11.6910  10.2120 O 1 RES   0.0000
5851 O  63.1740   8.9400   6.3220 O 1 RES   0.0000
5852 Si  63.1740   8.9400   0.0000 Si 1 RES   0.0000
5853 O  63.1740  10.3160   0.4860 O 1 RES   0.0000
5854 Si  63.1740  11.6910   0.9730 Si 1 RES   0.0000
5855 O  64.3650   8.2530   0.4860 O 1 RES   0.0000
5856 O  61.9830   8.2530   0.4860 O 1 RES   0.0000
5857 O  63.1740  11.6910   2.4310 O 1 RES   0.0000
5858 Si  63.1740  11.6910   3.8900 Si 1 RES   0.0000
5859 O  63.1740  10.3160   4.3770 O 1 RES   0.0000
5860 Si  63.1740   8.9400   4.8630 Si 1 RES   0.0000
5861 O  64.3650   8.2530   4.3770 O 1 RES   0.0000
5862 O  61.9830   8.2530   4.3770 O 1 RES   0.0000
5863 Si  63.1740   8.9400   7.7810 Si 1 RES   0.0000
5864 O  64.3650   8.2530   8.2670 O 1 RES   0.0000
5865 O  61.9830   8.2530   8.2670 O 1 RES   0.0000
5866 O  63.1740  10.3160   8.2670 O 1 RES   0.0000
5867 Si  63.1740  11.6910   8.7530 Si 1 RES   0.0000
5868 O  63.1740  11.6910  10.2120 O 1 RES   0.0000
5869 O  60.7920  13.0660   6.3220 O 1 RES   0.0000
5870 Si  60.7920  13.0660   0.0000 Si 1 RES   0.0000
5871 O  60.7920  14.4420   0.4860 O 1 RES   0.0000
5872 Si  60.7920  15.8170   0.9730 Si 1 RES   0.0000
5873 O  61.9830  12.3790   0.4860 O 1 RES   0.0000
5874 O  59.6010  12.3790   0.4860 O 1 RES   0.0000
5875 O  60.7920  15.8170   2.4310 O 1 RES   0.0000
5876 Si  60.7920  15.8170   3.8900 Si 1 RES   0.0000
5877 O  60.7920  14.4420   4.3770 O 1 RES   0.0000
5878 Si  60.7920  13.0660   4.8630 Si 1 RES   0.0000
5879 O  61.9830  12.3790   4.3770 O 1 RES   0.0000
5880 O  59.6010  12.3790   4.3770 O 1 RES   0.0000
5881 Si  60.7920  13.0660   7.7810 Si 1 RES   0.0000
5882 O  61.9830  12.3790   8.2670 O 1 RES   0.0000
5883 O  59.6010  12.3790   8.2670 O 1 RES   0.0000
5884 O  60.7920  14.4420   8.2670 O 1 RES   0.0000
5885 Si  60.7920  15.8170   8.7530 Si 1 RES   0.0000
5886 O  60.7920  15.8170  10.2120 O 1 RES   0.0000
5887 O  65.5560  13.0660   6.3220 O 1 RES   0.0000
5888 Si  65.5560  13.0660   0.0000 Si 1 RES   0.0000
5889 O  65.5560  14.4420   0.4860 O 1 RES   0.0000
5890 Si  65.5560  15.8170   0.9730 Si 1 RES   0.0000
5891 O  66.7470  12.3790   0.4860 O 1 RES   0.0000
5892 O  64.3650  12.3790   0.4860 O 1 RES   0.0000
5893 O  65.5560  15.8170   2.4310 O 1 RES   0.0000
5894 Si  65.5560  15.8170   3.8900 Si 1 RES   0.0000
5895 O  65.5560  14.4420   4.3770 O 1 RES   0.0000
5896 Si  65.5560  13.0660   4.8630 Si 1 RES   0.0000
5897 O  66.7470  12.3790   4.3770 O 1 RES   0.0000
5898 O  64.3650  12.3790   4.3770 O 1 RES   0.0000
5899 Si  65.5560  13.0660   7.7810 Si 1 RES   0.0000
5900 O  66.7470  12.3790   8.2670 O 1 RES   0.0000
5901 O  64.3650  12.3790   8.2670 O 1 RES   0.0000
5902 O  65.5560  14.4420   8.2670 O 1 RES   0.0000
5903 Si  65.5560  15.8170   8.7530 Si 1 RES   0.0000
5904 O  65.5560  15.8170  10.2120 O 1 RES   0.0000
5905 O  67.9390   8.9400   6.3220 O 1 RES   0.0000
5906 Si  67.9390   8.9400   0.0000 Si 1 RES   0.0000
5907 O  67.9390  10.3160   0.4860 O 1 RES   0.0000
5908 Si  67.9390  11.6910   0.9730 Si 1 RES   0.0000
5909 O  69.1300   8.2530   0.4860 O 1 RES   0.0000
5910 O  66.7470   8.2530   0.4860 O 1 RES   0.0000
5911 O  67.9390  11.6910   2.4310 O 1 RES   0.0000
5912 Si  67.9390  11.6910   3.8900 Si 1 RES   0.0000
5913 O  67.9390  10.3160   4.3770 O 1 RES   0.0000
5914 Si  67.9390   8.9400   4.8630 Si 1 RES   0.0000
5915 O  69.1300   8.2530   4.3770 O 1 RES   0.0000
5916 O  66.7470   8.2530   4.3770 O 1 RES   0.0000
5917 Si  67.9390   8.9400   7.7810 Si 1 RES   0.0000
5918 O  69.1300   8.2530   8.2670 O 1 RES   0.0000
5919 O  66.7470   8.2530   8.2670 O 1 RES   0.0000
5920 O  67.9390  10.3160   8.2670 O 1 RES   0.0000
5921 Si  67.9390  11.6910   8.7530 Si 1 RES   0.0000
5922 O  67.9390  11.6910  10.2120 O 1 RES   0.0000
5923 O  72.7030   8.9400   6.3220 O 1 RES   0.0000
5924 Si  72.7030   8.9400   0.0000 Si 1 RES   0.0000
5925 O  72.7030  10.3160   0.4860 O 1 RES   0.0000
5926 Si  72.7030  11.6910   0.9730 Si 1 RES   0.0000
5927 O  73.8940   8.2530   0.4860 O 1 RES   0.0000
5928 O  71.5120   8.2530   0.4860 O 1 RES   0.0000
5929 O  72.7030  11.6910   2.4310 O 1 RES   0.0000
5930 Si  72.7030  11.6910   3.8900 Si 1 RES   0.0000
5931 O  72.7030  10.3160   4.3770 O 1 RES   0.0000
5932 Si  72.7030   8.9400   4.8630 Si 1 RES   0.0000
5933 O  73.8940   8.2530   4.3770 O 1 RES   0.0000
5934 O  71.5120   8.2530   4.3770 O 1 RES   0.0000
5935 Si  72.7030   8.9400   7.7810 Si 1 RES   0.0000
5936 O  73.8940   8.2530   8.2670 O 1 RES   0.0000
5937 O  71.5120   8.2530   8.2670 O 1 RES   0.0000
5938 O  72.7030  10.3160   8.2670 O 1 RES   0.0000
5939 Si  72.7030  11.6910   8.7530 Si 1 RES   0.0000
5940 O  72.7030  11.6910  10.2120 O 1 RES   0.0000
5941 O  70.3210  13.0660   6.3220 O 1 RES   0.0000
5942 Si  70.3210  13.0660   0.0000 Si 1 RES   0.0000
5943 O  70.3210  14.4420   0.4860 O 1 RES   0.0000
5944 Si  70.3210  15.8170   0.9730 Si 1 RES   0.0000
5945 O  71.5120  12.3790   0.4860 O 1 RES   0.0000
5946 O  69.1300  12.3790   0.4860 O 1 RES   0.0000
5947 O  70.3210  15.8170   2.4310 O 1 RES   0.0000
5948 Si  70.3210  15.8170   3.8900 Si 1 RES   0.0000
5949 O  70.3210  14.4420   4.3770 O 1 RES   0.0000
5950 Si  70.3210  13.0660   4.8630 Si 1 RES   0.0000
5951 O  71.5120  12.3790   4.3770 O 1 RES   0.0000
5952 O  69.1300  12.3790   4.3770 O 1 RES   0.0000
5953 Si  70.3210  13.0660   7.7810 Si 1 RES   0.0000
5954 O  71.5120  12.3790   8.2670 O 1 RES   0.0000
5955 O  69.1300  12.3790   8.2670 O 1 RES   0.0000
5956 O  70.3210  14.4420   8.2670 O 1 RES   0.0000
5957 Si  70.3210  15.8170   8.7530 Si 1 RES   0.0000
5958 O  70.3210  15.8170  10.2120 O 1 RES   0.0000
5959 O  75.0850  13.0660   6.3220 O 1 RES   0.0000
5960 Si  75.0850  13.0660   0.0000 Si 1 RES   0.0000
5961 O  75.0850  14.4420   0.4860 O 1 RES   0.0000
5962 Si  75.0850  15.8170   0.9730 Si 1 RES   0.0000
5963 O  76.2760  12.3790   0.4860 O 1 RES   0.0000
5964 O  73.8940  12.3790   0.4860 O 1 RES   0.0000
5965 O  75.0850  15.8170   2.4310 O 1 RES   0.0000
5966 Si  75.0850  15.8170   3.8900 Si 1 RES   0.0000
5967 O  75.0850  14.4420   4.3770 O 1 RES   0.0000
5968 Si  75.0850  13.0660   4.8630 Si 1 RES   0.0000
5969 O  76.2760  12.3790   4.3770 O 1 RES   0.0000
5970 O  73.8940  12.3790   4.3770 O 1 RES   0.0000
5971 Si  75.0850  13.0660   7.7810 Si 1 RES   0.0000
5972 O  76.2760  12.3790   8.2670 O 1 RES   0.0000
5973 O  73.8940  12.3790   8.2670 O 1 RES   0.0000
5974 O  75.0850  14.4420   8.2670 O 1 RES   0.0000
5975 Si  75.0850  15.8170   8.7530 Si 1 RES   0.0000
5976 O  75.0850  15.8170  10.2120 O 1 RES   0.0000
5977 O  77.4680   8.9400   6.3220 O 1 RES   0.0000
5978 Si  77.4680   8.9400   0.0000 Si 1 RES   0.0000
5979 O  77.4680  10.3160   0.4860 O 1 RES   0.0000
5980 Si  77.4680  11.6910   0.9730 Si 1 RES   0.0000
5981 O  78.6590   8.2530   0.4860 O 1 RES   0.0000
5982 O  76.2760   8.2530   0.4860 O 1 RES   0.0000
5983 O  77.4680  11.6910   2.4310 O 1 RES   0.0000
5984 Si  77.4680  11.6910   3.8900 Si 1 RES   0.0000
5985 O  77.4680  10.3160   4.3770 O 1 RES   0.0000
5986 Si  77.4680   8.9400   4.8630 Si 1 RES   0.0000
5987 O  78.6590   8.2530   4.3770 O 1 RES   0.0000
5988 O  76.2760   8.2530   4.3770 O 1 RES   0.0000
5989 Si  77.4680   8.9400   7.7810 Si 1 RES   0.0000
5990 O  78.6590   8.2530   8.2670 O 1 RES   0.0000
5991 O  76.2760   8.2530   8.2670 O 1 RES   0.0000
5992 O  77.4680  10.3160   8.2670 O 1 RES   0.0000
5993 Si  77.4680  11.6910   8.7530 Si 1 RES   0.0000
5994 O  77.4680  11.6910  10.2120 O 1 RES   0.0000
5995 O  82.2320   8.9400   6.3220 O 1 RES   0.0000
5996 Si  82.2320   8.9400   0.0000 Si 1 RES   0.0000
5997 O  82.2320  10.3160   0.4860 O 1 RES   0.0000
5998 Si  82.2320  11.6910   0.9730 Si 1 RES   0.0000
5999 O  83.4230   8.2530   0.4860 O 1 RES   0.0000
6000 O  81.0410   8.2530   0.4860 O 1 RES   0.0000
6001 O  82.2320  11.6910   2.4310 O 1 RES   0.0000
6002 Si  82.2320  11.6910   3.8900 Si 1 RES   0.0000
6003 O  82.2320  10.3160   4.3770 O 1 RES   0.0000
6004 Si  82.2320   8.9400   4.8630 Si 1 RES   0.0000
6005 O  83.4230   8.2530   4.3770 O 1 RES   0.0000
6006 O  81.0410   8.2530   4.3770 O 1 RES   0.0000
6007 Si  82.2320   8.9400   7.7810 Si 1 RES   0.0000
6008 O  83.4230   8.2530   8.2670 O 1 RES   0.0000
6009 O  81.0410   8.2530   8.2670 O 1 RES   0.0000
6010 O  82.2320  10.3160   8.2670 O 1 RES   0.0000
6011 Si  82.2320  11.6910   8.7530 Si 1 RES   0.0000
6012 O  82.2320  11.6910  10.2120 O 1 RES   0.0000
6013 O  79.8500  13.0660   6.3220 O 1 RES   0.0000
6014 Si  79.8500  13.0660   0.0000 Si 1 RES   0.0000
6015 O  79.8500  14.4420   0.4860 O 1 RES   0.0000
6016 Si  79.8500  15.8170   0.9730 Si 1 RES   0.0000
6017 O  81.0410  12.3790   0.4860 O 1 RES   0.0000
6018 O  78.6590  12.3790   0.4860 O 1 RES   0.0000
6019 O  79.8500  15.8170   2.4310 O 1 RES   0.0000
6020 Si  79.8500  15.8170   3.8900 Si 1 RES   0.0000
6021 O  79.8500  14.4420   4.3770 O 1 RES   0.0000
6022 Si  79.8500  13.0660   4.8630 Si 1 RES   0.0000
6023 O  81.0410  12.3790   4.3770 O 1 RES   0.0000
6024 O  78.6590  12.3790   4.3770 O 1 RES   0.0000
6025 Si  79.8500  13.0660   7.7810 Si 1 RES   0.0000
6026 O  81.0410  12.3790   8.2670 O 1 RES   0.0000
6027 O  78.6590  12.3790   8.2670 O 1 RES   0.0000
6028 O  79.8500  14.4420   8.2670 O 1 RES   0.0000
6029 Si  79.8500  15.8170   8.7530 Si 1 RES   0.0000
6030 O  79.8500  15.8170  10.2120 O 1 RES   0.0000
6031 O  84.6140  13.0660   6.3220 O 1 RES   0.0000
6032 Si  84.6140  13.0660   0.0000 Si 1 RES   0.0000
6033 O  84.6140  14.4420   0.4860 O 1 RES   0.0000
6034 Si  84.6140  15.8170   0.9730 Si 1 RES   0.0000
6035 O  85.8060  12.3790   0.4860 O 1 RES   0.0000
6036 O  83.4230  12.3790   0.4860 O 1 RES   0.0000
6037 O  84.6140  15.8170   2.4310 O 1 RES   0.0000
6038 Si  84.6140  15.8170   3.8900 Si 1 RES   0.0000
6039 O  84.6140  14.4420   4.3770 O 1 RES   0.0000
6040 Si  84.6140  13.0660   4.8630 Si 1 RES   0.0000
6041 O  85.8060  12.3790   4.3770 O 1 RES   0.0000
6042 O  83.4230  12.3790   4.3770 O 1 RES   0.0000
6043 Si  84.6140  13.0660   7.7810 Si 1 RES   0.0000
6044 O  85.8060  12.3790   8.2670 O 1 RES   0.0000
6045 O  83.4230  12.3790   8.2670 O 1 RES   0.0000
6046 O  84.6140  14.4420   8.2670 O 1 RES   0.0000
6047 Si  84.6140  15.8170   8.7530 Si 1 RES   0.0000
6048 O  84.6140  15.8170  10.2120 O 1 RES   0.0000
6049 O  86.9970   8.9400   6.3220 O 1 RES   0.0000
6050 Si  86.9970   8.9400   0.0000 Si 1 RES   0.0000
6051 O  86.9970  10.3160   0.4860 O 1 RES   0.0000
6052 Si  86.9970  11.6910   0.9730 Si 1 RES   0.0000
6053 O  88.1880   8.2530   0.4860 O 1 RES   0.0000
6054 O  85.8060   8.2530   0.4860 O 1 RES   0.0000
6055 O  86.9970  11.6910   2.4310 O 1 RES   0.0000
6056 Si  86.9970  11.6910   3.8900 Si 1 RES   0.0000
6057 O  86.9970  10.3160   4.3770 O 1 RES   0.0000
6058 Si  86.9970   8.9400   4.8630 Si 1 RES   0.0000
6059 O  88.1880   8.2530   4.3770 O 1 RES   0.0000
6060 O  85.8060   8.2530   4.3770 O 1 RES   0.0000
6061 Si  86.9970   8.9400   7.7810 Si 1 RES   0.0000
6062 O  88.1880   8.2530   8.2670 O 1 RES   0.0000
6063 O  85.8060   8.2530   8.2670 O 1 RES   0.0000
6064 O  86.9970  10.3160   8.2670 O 1 RES   0.0000
6065 Si  86.9970  11.6910   8.7530 Si 1 RES   0.0000
6066 O  86.9970  11.6910  10.2120 O 1 RES   0.0000
6067 O  91.7610   8.9400   6.3220 O 1 RES   0.0000
6068 Si  91.7610   8.9400   0.0000 Si 1 RES   0.0000
6069 O  91.7610  10.3160   0.4860 O 1 RES   0.0000
6070 Si  91.7610  11.6910   0.9730 Si 1 RES   0.0000
6071 O  92.9530   8.2530   0.4860 O 1 RES   0.0000
6072 O  90.5700   8.2530   0.4860 O 1 RES   0.0000
6073 O  91.7610  11.6910   2.4310 O 1 RES   0.0000
6074 Si  91.7610  11.6910   3.8900 Si 1 RES   0.0000
6075 O  91.7610  10.3160   4.3770 O 1 RES   0.0000
6076 Si  91.7610   8.9400   4.8630 Si 1 RES   0.0000
6077 O  92.9530   8.2530   4.3770 O 1 RES   0.0000
6078 O  90.5700   8.2530   4.3770 O 1 RES   0.0000
6079 Si  91.7610   8.9400   7.7810 Si 1 RES   0.0000
6080 O  92.9530   8.2530   8.2670 O 1 RES   0.0000
6081 O  90.5700   8.2530   8.2670 O 1 RES   0.0000
6082 O  91.7610  10.3160   8.2670 O 1 RES   0.0000
6083 Si  91.7610  11.6910   8.7530 Si 1 RES   0.0000
6084 O  91.7610  11.6910  10.2120 O 1 RES   0.0000
6085 O  89.3790  13.0660   6.3220 O 1 RES   0.0000
6086 Si  89.3790  13.0660   0.0000 Si 1 RES   0.0000
6087 O  89.3790  14.4420   0.4860 O 1 RES   0.0000
6088 Si  89.3790  15.8170   0.9730 Si 1 RES   0.0000
6089 O  90.5700  12.3790   0.4860 O 1 RES   0.0000
6090 O  88.1880  12.3790   0.4860 O 1 RES   0.0000
6091 O  89.3790  15.8170   2.4310 O 1 RES   0.0000
6092 Si  89.3790  15.8170   3.8900 Si 1 RES   0.0000
6093 O  89.3790  14.4420   4.3770 O 1 RES   0.0000
6094 Si  89.3790  13.0660   4.8630 Si 1 RES   0.0000
6095 O  90.5700  12.3790   4.3770 O 1 RES   0.0000
6096 O  88.1880  12.3790   4.3770 O 1 RES   0.0000
6097 Si  89.3790  13.0660   7.7810 Si 1 RES   0.0000
6098 O  90.5700  12.3790   8.2670 O 1 RES   0.0000
6099 O  88.1880  12.3790   8.2670 O 1 RES   0.0000
6100 O  89.3790  14.4420   8.2670 O 1 RES   0.0000
6101 Si  89.3790  15.8170   8.7530 Si 1 RES   0.0000
6102 O  89.3790  15.8170  10.2120 O 1 RES   0.0000
6103 O  94.1440  13.0660   6.3220 O 1 RES   0.0000
6104 Si  94.1440  13.0660   0.0000 Si 1 RES   0.0000
6105 O  94.1440  14.4420   0.4860 O 1 RES   0.0000
6106 Si  94.1440  15.8170   0.9730 Si 1 RES   0.0000
6107 O  47.6460  12.3790   0.4860 O 1 RES   0.0000
6108 O  92.9530  12.3790   0.4860 O 1 RES   0.0000
6109 O  94.1440  15.8170   2.4310 O 1 RES   0.0000
6110 Si  94.1440  15.8170   3.8900 Si 1 RES   0.0000
6111 O  94.1440  14.4420   4.3770 O 1 RES   0.0000
6112 Si  94.1440  13.0660   4.8630 Si 1 RES   0.0000
6113 O  47.6460  12.3790   4.3770 O 1 RES   0.0000
6114 O  92.9530  12.3790   4.3770 O 1 RES   0.0000
6115 Si  94.1440  13.0660   7.7810 Si 1 RES   0.0000
6116 O  47.6460  12.3790   8.2670 O 1 RES   0.0000
6117 O  92.9530  12.3790   8.2670 O 1 RES   0.0000
6118 O  94.1440  14.4420   8.2670 O 1 RES   0.0000
6119 Si  94.1440  15.8170   8.7530 Si 1 RES   0.0000
6120 O  94.1440  15.8170  10.2120 O 1 RES   0.0000
6121 O  48.8800  17.1930   6.3220 O 1 RES   0.0000
6122 Si  48.8800  17.1930   0.0000 Si 1 RES   0.0000
6123 O  48.8800  18.5680   0.4860 O 1 RES   0.0000
6124 Si  48.8800  19.9440   0.9730 Si 1 RES   0.0000
6125 O  50.0710  16.5050   0.4860 O 1 RES   0.0000
6126 O  47.6890  16.5050   0.4860 O 1 RES   0.0000
6127 O  48.8800  19.9440   2.4310 O 1 RES   0.0000
6128 Si  48.8800  19.9440   3.8900 Si 1 RES   0.0000
6129 O  48.8800  18.5680   4.3770 O 1 RES   0.0000
6130 Si  48.8800  17.1930   4.8630 Si 1 RES   0.0000
6131 O  50.0710  16.5050   4.3770 O 1 RES   0.0000
6132 O  47.6890  16.5050   4.3770 O 1 RES   0.0000
6133 Si  48.8800  17.1930   7.7810 Si 1 RES   0.0000
6134 O  50.0710  16.5050   8.2670 O 1 RES   0.0000
6135 O  47.6890  16.5050   8.2670 O 1 RES   0.0000
6136 O  48.8800  18.5680   8.2670 O 1 RES   0.0000
6137 Si  48.8800  19.9440   8.7530 Si 1 RES   0.0000
6138 O  48.8800  19.9440  10.2120 O 1 RES   0.0000
6139 O  53.6450  17.1930   6.3220 O 1 RES   0.0000
6140 Si  53.6450  17.1930   0.0000 Si 1 RES   0.0000
6141 O  53.6450  18.5680   0.4860 O 1 RES   0.0000
6142 Si  53.6450  19.9440   0.9730 Si 1 RES   0.0000
6143 O  54.8360  16.5050   0.4860 O 1 RES   0.0000
6144 O  52.4540  16.5050   0.4860 O 1 RES   0.0000
6145 O  53.6450  19.9440   2.4310 O 1 RES   0.0000
6146 Si  53.6450  19.9440   3.8900 Si 1 RES   0.0000
6147 O  53.6450  18.5680   4.3770 O 1 RES   0.0000
6148 Si  53.6450  17.1930   4.8630 Si 1 RES   0.0000
6149 O  54.8360  16.5050   4.3770 O 1 RES   0.0000
6150 O  52.4540  16.5050   4.3770 O 1 RES   0.0000
6151 Si  53.6450  17.1930   7.7810 Si 1 RES   0.0000
6152 O  54.8360  16.5050   8.2670 O 1 RES   0.0000
6153 O  52.4540  16.5050   8.2670 O 1 RES   0.0000
6154 O  53.6450  18.5680   8.2670 O 1 RES   0.0000
6155 Si  53.6450  19.9440   8.7530 Si 1 RES   0.0000
6156 O  53.6450  19.9440  10.2120 O 1 RES   0.0000
6157 O  51.2620  21.3190   6.3220 O 1 RES   0.0000
6158 Si  51.2620  21.3190   0.0000 Si 1 RES   0.0000
6159 O  51.2620  22.6940   0.4860 O 1 RES   0.0000
6160 Si  51.2620  24.0700   0.9730 Si 1 RES   0.0000
6161 O  52.4540  20.6310   0.4860 O 1 RES   0.0000
6162 O  50.0710  20.6310   0.4860 O 1 RES   0.0000
6163 O  51.2620  24.0700   2.4310 O 1 RES   0.0000
6164 Si  51.2620  24.0700   3.8900 Si 1 RES   0.0000
6165 O  51.2620  22.6940   4.3770 O 1 RES   0.0000
6166 Si  51.2620  21.3190   4.8630 Si 1 RES   0.0000
6167 O  52.4540  20.6310   4.3770 O 1 RES   0.0000
6168 O  50.0710  20.6310   4.3770 O 1 RES   0.0000
6169 Si  51.2620  21.3190   7.7810 Si 1 RES   0.0000
6170 O  52.4540  20.6310   8.2670 O 1 RES   0.0000
6171 O  50.0710  20.6310   8.2670 O 1 RES   0.0000
6172 O  51.2620  22.6940   8.2670 O 1 RES   0.0000
6173 Si  51.2620  24.0700   8.7530 Si 1 RES   0.0000
6174 O  51.2620  24.0700  10.2120 O 1 RES   0.0000
6175 O  56.0270  21.3190   6.3220 O 1 RES   0.0000
6176 Si  56.0270  21.3190   0.0000 Si 1 RES   0.0000
6177 O  56.0270  22.6940   0.4860 O 1 RES   0.0000
6178 Si  56.0270  24.0700   0.9730 Si 1 RES   0.0000
6179 O  57.2180  20.6310   0.4860 O 1 RES   0.0000
6180 O  54.8360  20.6310   0.4860 O 1 RES   0.0000
6181 O  56.0270  24.0700   2.4310 O 1 RES   0.0000
6182 Si  56.0270  24.0700   3.8900 Si 1 RES   0.0000
6183 O  56.0270  22.6940   4.3770 O 1 RES   0.0000
6184 Si  56.0270  21.3190   4.8630 Si 1 RES   0.0000
6185 O  57.2180  20.6310   4.3770 O 1 RES   0.0000
6186 O  54.8360  20.6310   4.3770 O 1 RES   0.0000
6187 Si  56.0270  21.3190   7.7810 Si 1 RES   0.0000
6188 O  57.2180  20.6310   8.2670 O 1 RES   0.0000
6189 O  54.8360  20.6310   8.2670 O 1 RES   0.0000
6190 O  56.0270  22.6940   8.2670 O 1 RES   0.0000
6191 Si  56.0270  24.0700   8.7530 Si 1 RES   0.0000
6192 O  56.0270  24.0700  10.2120 O 1 RES   0.0000
6193 O  58.4090  17.1930   6.3220 O 1 RES   0.0000
6194 Si  58.4090  17.1930   0.0000 Si 1 RES   0.0000
6195 O  58.4090  18.5680   0.4860 O 1 RES   0.0000
6196 Si  58.4090  19.9440   0.9730 Si 1 RES   0.0000
6197 O  59.6010  16.5050   0.4860 O 1 RES   0.0000
6198 O  57.2180  16.5050   0.4860 O 1 RES   0.0000
6199 O  58.4090  19.9440   2.4310 O 1 RES   0.0000
6200 Si  58.4090  19.9440   3.8900 Si 1 RES   0.0000
6201 O  58.4090  18.5680   4.3770 O 1 RES   0.0000
6202 Si  58.4090  17.1930   4.8630 Si 1 RES   0.0000
6203 O  59.6010  16.5050   4.3770 O 1 RES   0.0000
6204 O  57.2180  16.5050   4.3770 O 1 RES   0.0000
6205 Si  58.4090  17.1930   7.7810 Si 1 RES   0.0000
6206 O  59.6010  16.5050   8.2670 O 1 RES   0.0000
6207 O  57.2180  16.5050   8.2670 O 1 RES   0.0000
6208 O  58.4090  18.5680   8.2670 O 1 RES   0.0000
6209 Si  58.4090  19.9440   8.7530 Si 1 RES   0.0000
6210 O  58.4090  19.9440  10.2120 O 1 RES   0.0000
6211 O  63.1740  17.1930   6.3220 O 1 RES   0.0000
6212 Si  63.1740  17.1930   0.0000 Si 1 RES   0.0000
6213 O  63.1740  18.5680   0.4860 O 1 RES   0.0000
6214 Si  63.1740  19.9440   0.9730 Si 1 RES   0.0000
6215 O  64.3650  16.5050   0.4860 O 1 RES   0.0000
6216 O  61.9830  16.5050   0.4860 O 1 RES   0.0000
6217 O  63.1740  19.9440   2.4310 O 1 RES   0.0000
6218 Si  63.1740  19.9440   3.8900 Si 1 RES   0.0000
6219 O  63.1740  18.5680   4.3770 O 1 RES   0.0000
6220 Si  63.1740  17.1930   4.8630 Si 1 RES   0.0000
6221 O  64.3650  16.5050   4.3770 O 1 RES   0.0000
6222 O  61.9830  16.5050   4.3770 O 1 RES   0.0000
6223 Si  63.1740  17.1930   7.7810 Si 1 RES   0.0000
6224 O  64.3650  16.5050   8.2670 O 1 RES   0.0000
6225 O  61.9830  16.5050   8.2670 O 1 RES   0.0000
6226 O  63.1740  18.5680   8.2670 O 1 RES   0.0000
6227 Si  63.1740  19.9440   8.7530 Si 1 RES   0.0000
6228 O  63.1740  19.9440  10.2120 O 1 RES   0.0000
6229 O  60.7920  21.3190   6.3220 O 1 RES   0.0000
6230 Si  60.7920  21.3190   0.0000 Si 1 RES   0.0000
6231 O  60.7920  22.6940   0.4860 O 1 RES   0.0000
6232 Si  60.7920  24.0700   0.9730 Si 1 RES   0.0000
6233 O  61.9830  20.6310   0.4860 O 1 RES   0.0000
6234 O  59.6010  20.6310   0.4860 O 1 RES   0.0000
6235 O  60.7920  24.0700   2.4310 O 1 RES   0.0000
6236 Si  60.7920  24.0700   3.8900 Si 1 RES   0.0000
6237 O  60.7920  22.6940   4.3770 O 1 RES   0.0000
6238 Si  60.7920  21.3190   4.8630 Si 1 RES   0.0000
6239 O  61.9830  20.6310   4.3770 O 1 RES   0.0000
6240 O  59.6010  20.6310   4.3770 O 1 RES   0.0000
6241 Si  60.7920  21.3190   7.7810 Si 1 RES   0.0000
6242 O  61.9830  20.6310   8.2670 O 1 RES   0.0000
6243 O  59.6010  20.6310   8.2670 O 1 RES   0.0000
6244 O  60.7920  22.6940   8.2670 O 1 RES   0.0000
6245 Si  60.7920  24.0700   8.7530 Si 1 RES   0.0000
6246 O  60.7920  24.0700  10.2120 O 1 RES   0.0000
6247 O  65.5560  21.3190   6.3220 O 1 RES   0.0000
6248 Si  65.5560  21.3190   0.0000 Si 1 RES   0.0000
6249 O  65.5560  22.6940   0.4860 O 1 RES   0.0000
6250 Si  65.5560  24.0700   0.9730 Si 1 RES   0.0000
6251 O  66.7470  20.6310   0.4860 O 1 RES   0.0000
6252 O  64.3650  20.6310   0.4860 O 1 RES   0.0000
6253 O  65.5560  24.0700   2.4310 O 1 RES   0.0000
6254 Si  65.5560  24.0700   3.8900 Si 1 RES   0.0000
6255 O  65.5560  22.6940   4.3770 O 1 RES   0.0000
6256 Si  65.5560  21.3190   4.8630 Si 1 RES   0.0000
6257 O  66.7470  20.6310   4.3770 O 1 RES   0.0000
6258 O  64.3650  20.6310   4.3770 O 1 RES   0.0000
6259 Si  65.5560  21.3190   7.7810 Si 1 RES   0.0000
6260 O  66.7470  20.6310   8.2670 O 1 RES   0.0000
6261 O  64.3650  20.6310   8.2670 O 1 RES   0.0000
6262 O  65.5560  22.6940   8.2670 O 1 RES   0.0000
6263 Si  65.5560  24.0700   8.7530 Si 1 RES   0.0000
6264 O  65.5560  24.0700  10.2120 O 1 RES   0.0000
6265 O  67.9390  17.1930   6.3220 O 1 RES   0.0000
6266 Si  67.9390  17.1930   0.0000 Si 1 RES   0.0000
6267 O  67.9390  18.5680   0.4860 O 1 RES   0.0000
6268 Si  67.9390  19.9440   0.9730 Si 1 RES   0.0000
6269 O  69.1300  16.5050   0.4860 O 1 RES   0.0000
6270 O  66.7470  16.5050   0.4860 O 1 RES   0.0000
6271 O  67.9390  19.9440   2.4310 O 1 RES   0.0000
6272 Si  67.9390  19.9440   3.8900 Si 1 RES   0.0000
6273 O  67.9390  18.5680   4.3770 O 1 RES   0.0000
6274 Si  67.9390  17.1930   4.8630 Si 1 RES   0.0000
6275 O  69.1300  16.5050   4.3770 O 1 RES   0.0000
6276 O  66.7470  16.5050   4.3770 O 1 RES   0.0000
6277 Si  67.9390  17.1930   7.7810 Si 1 RES   0.0000
6278 O  69.1300  16.5050   8.2670 O 1 RES   0.0000
6279 O  66.7470  16.5050   8.2670 O 1 RES   0.0000
6280 O  67.9390  18.5680   8.2670 O 1 RES   0.0000
6281 Si  67.9390  19.9440   8.7530 Si 1 RES   0.0000
6282 O  67.9390  19.9440  10.2120 O 1 RES   0.0000
6283 O  72.7030  17.1930   6.3220 O 1 RES   0.0000
6284 Si  72.7030  17.1930   0.0000 Si 1 RES   0.0000
6285 O  72.7030  18.5680   0.4860 O 1 RES   0.0000
6286 Si  72.7030  19.9440   0.9730 Si 1 RES   0.0000
6287 O  73.8940  16.5050   0.4860 O 1 RES   0.0000
6288 O  71.5120  16.5050   0.4860 O 1 RES   0.0000
6289 O  72.7030  19.9440   2.4310 O 1 RES   0.0000
6290 Si  72.7030  19.9440   3.8900 Si 1 RES   0.0000
6291 O  72.7030  18.5680   4.3770 O 1 RES   0.0000
6292 Si  72.7030  17.1930   4.8630 Si 1 RES   0.0000
6293 O  73.8940  16.5050   4.3770 O 1 RES   0.0000
6294 O  71.5120  16.5050   4.3770 O 1 RES   0.0000
6295 Si  72.7030  17.1930   7.7810 Si 1 RES   0.0000
6296 O  73.8940  16.5050   8.2670 O 1 RES   0.0000
6297 O  71.5120  16.5050   8.2670 O 1 RES   0.0000
6298 O  72.7030  18.5680   8.2670 O 1 RES   0.0000
6299 Si  72.7030  19.9440   8.7530 Si 1 RES   0.0000
6300 O  72.7030  19.9440  10.2120 O 1 RES   0.0000
6301 O  70.3210  21.3190   6.3220 O 1 RES   0.0000
6302 Si  70.3210  21.3190   0.0000 Si 1 RES   0.0000
6303 O  70.3210  22.6940   0.4860 O 1 RES   0.0000
6304 Si  70.3210  24.0700   0.9730 Si 1 RES   0.0000
6305 O  71.5120  20.6310   0.4860 O 1 RES   0.0000
6306 O  69.1300  20.6310   0.4860 O 1 RES   0.0000
6307 O  70.3210  24.0700   2.4310 O 1 RES   0.0000
6308 Si  70.3210  24.0700   3.8900 Si 1 RES   0.0000
6309 O  70.3210  22.6940   4.3770 O 1 RES   0.0000
6310 Si  70.3210  21.3190   4.8630 Si 1 RES   0.0000
6311 O  71.5120  20.6310   4.3770 O 1 RES   0.0000
6312 O  69.1300  20.6310   4.3770 O 1 RES   0.0000
6313 Si  70.3210  21.3190   7.7810 Si 1 RES   0.0000
6314 O  71.5120  20.6310   8.2670 O 1 RES   0.0000
6315 O  69.1300  20.6310   8.2670 O 1 RES   0.0000
6316 O  70.3210  22.6940   8.2670 O 1 RES   0.0000
6317 Si  70.3210  24.0700   8.7530 Si 1 RES   0.0000
6318 O  70.3210  24.0700  10.2120 O 1 RES   0.0000
6319 O  75.0850  21.3190   6.3220 O 1 RES   0.0000
6320 Si  75.0850  21.3190   0.0000 Si 1 RES   0.0000
6321 O  75.0850  22.6940   0.4860 O 1 RES   0.0000
6322 Si  75.0850  24.0700   0.9730 Si 1 RES   0.0000
6323 O  76.2760  20.6310   0.4860 O 1 RES   0.0000
6324 O  73.8940  20.6310   0.4860 O 1 RES   0.0000
6325 O  75.0850  24.0700   2.4310 O 1 RES   0.0000
6326 Si  75.0850  24.0700   3.8900 Si 1 RES   0.0000
6327 O  75.0850  22.6940   4.3770 O 1 RES   0.0000
6328 Si  75.0850  21.3190   4.8630 Si 1 RES   0.0000
6329 O  76.2760  20.6310   4.3770 O 1 RES   0.0000
6330 O  73.8940  20.6310   4.3770 O 1 RES   0.0000
6331 Si  75.0850  21.3190   7.7810 Si 1 RES   0.0000
6332 O  76.2760  20.6310   8.2670 O 1 RES   0.0000
6333 O  73.8940  20.6310   8.2670 O 1 RES   0.0000
6334 O  75.0850  22.6940   8.2670 O 1 RES   0.0000
6335 Si  75.0850  24.0700   8.7530 Si 1 RES   0.0000
6336 O  75.0850  24.0700  10.2120 O 1 RES   0.0000
6337 O  77.4680  17.1930   6.3220 O 1 RES   0.0000
6338 Si  77.4680  17.1930   0.0000 Si 1 RES   0.0000
6339 O  77.4680  18.5680   0.4860 O 1 RES   0.0000
6340 Si  77.4680  19.9440   0.9730 Si 1 RES   0.0000
6341 O  78.6590  16.5050   0.4860 O 1 RES   0.0000
6342 O  76.2760  16.5050   0.4860 O 1 RES   0.0000
6343 O  77.4680  19.9440   2.4310 O 1 RES   0.0000
6344 Si  77.4680  19.9440   3.8900 Si 1 RES   0.0000
6345 O  77.4680  18.5680   4.3770 O 1 RES   0.0000
6346 Si  77.4680  17.1930   4.8630 Si 1 RES   0.0000
6347 O  78.6590  16.5050   4.3770 O 1 RES   0.0000
6348 O  76.2760  16.5050   4.3770 O 1 RES   0.0000
6349 Si  77.4680  17.1930   7.7810 Si 1 RES   0.0000
6350 O  78.6590  16.5050   8.2670 O 1 RES   0.0000
6351 O  76.2760  16.5050   8.2670 O 1 RES   0.0000
6352 O  77.4680  18.5680   8.2670 O 1 RES   0.0000
6353 Si  77.4680  19.9440   8.7530 Si 1 RES   0.0000
6354 O  77.4680  19.9440  10.2120 O 1 RES   0.0000
6355 O  82.2320  17.1930   6.3220 O 1 RES   0.0000
6356 Si  82.2320  17.1930   0.0000 Si 1 RES   0.0000
6357 O  82.2320  18.5680   0.4860 O 1 RES   0.0000
6358 Si  82.2320  19.9440   0.9730 Si 1 RES   0.0000
6359 O  83.4230  16.5050   0.4860 O 1 RES   0.0000
6360 O  81.0410  16.5050   0.4860 O 1 RES   0.0000
6361 O  82.2320  19.9440   2.4310 O 1 RES   0.0000
6362 Si  82.2320  19.9440   3.8900 Si 1 RES   0.0000
6363 O  82.2320  18.5680   4.3770 O 1 RES   0.0000
6364 Si  82.2320  17.1930   4.8630 Si 1 RES   0.0000
6365 O  83.4230  16.5050   4.3770 O 1 RES   0.0000
6366 O  81.0410  16.5050   4.3770 O 1 RES   0.0000
6367 Si  82.2320  17.1930   7.7810 Si 1 RES   0.0000
6368 O  83.4230  16.5050   8.2670 O 1 RES   0.0000
6369 O  81.0410  16.5050   8.2670 O 1 RES   0.0000
6370 O  82.2320  18.5680   8.2670 O 1 RES   0.0000
6371 Si  82.2320  19.9440   8.7530 Si 1 RES   0.0000
6372 O  82.2320  19.9440  10.2120 O 1 RES   0.0000
6373 O  79.8500  21.3190   6.3220 O 1 RES   0.0000
6374 Si  79.8500  21.3190   0.0000 Si 1 RES   0.0000
6375 O  79.8500  22.6940   0.4860 O 1 RES   0.0000
6376 Si  79.8500  24.0700   0.9730 Si 1 RES   0.0000
6377 O  81.0410  20.6310   0.4860 O 1 RES   0.0000
6378 O  78.6590  20.6310   0.4860 O 1 RES   0.0000
6379 O  79.8500  24.0700   2.4310 O 1 RES   0.0000
6380 Si  79.8500  24.0700   3.8900 Si 1 RES   0.0000
6381 O  79.8500  22.6940   4.3770 O 1 RES   0.0000
6382 Si  79.8500  21.3190   4.8630 Si 1 RES   0.0000
6383 O  81.0410  20.6310   4.3770 O 1 RES   0.0000
6384 O  78.6590  20.6310   4.3770 O 1 RES   0.0000
6385 Si  79.8500  21.3190   7.7810 Si 1 RES   0.0000
6386 O  81.0410  20.6310   8.2670 O 1 RES   0.0000
6387 O  78.6590  20.6310   8.2670 O 1 RES   0.0000
6388 O  79.8500  22.6940   8.2670 O 1 RES   0.0000
6389 Si  79.8500  24.0700   8.7530 Si 1 RES   0.0000
6390 O  79.8500  24.0700  10.2120 O 1 RES   0.0000
6391 O  84.6140  21.3190   6.3220 O 1 RES   0.0000
6392 Si  84.6140  21.3190   0.0000 Si 1 RES   0.0000
6393 O  84.6140  22.6940   0.4860 O 1 RES   0.0000
6394 Si  84.6140  24.0700   0.9730 Si 1 RES   0.0000
6395 O  85.8060  20.6310   0.4860 O 1 RES   0.0000
6396 O  83.4230  20.6310   0.4860 O 1 RES   0.0000
6397 O  84.6140  24.0700   2.4310 O 1 RES   0.0000
6398 Si  84.6140  24.0700   3.8900 Si 1 RES   0.0000
6399 O  84.6140  22.6940   4.3770 O 1 RES   0.0000
6400 Si  84.6140  21.3190   4.8630 Si 1 RES   0.0000
6401 O  85.8060  20.6310   4.3770 O 1 RES   0.0000
6402 O  83.4230  20.6310   4.3770 O 1 RES   0.0000
6403 Si  84.6140  21.3190   7.7810 Si 1 RES   0.0000
6404 O  85.8060  20.6310   8.2670 O 1 RES   0.0000
6405 O  83.4230  20.6310   8.2670 O 1 RES   0.0000
6406 O  84.6140  22.6940   8.2670 O 1 RES   0.0000
6407 Si  84.6140  24.0700   8.7530 Si 1 RES   0.0000
6408 O  84.6140  24.0700  10.2120 O 1 RES   0.0000
6409 O  86.9970  17.1930   6.3220 O 1 RES   0.0000
6410 Si  86.9970  17.1930   0.0000 Si 1 RES   0.0000
6411 O  86.9970  18.5680   0.4860 O 1 RES   0.0000
6412 Si  86.9970  19.9440   0.9730 Si 1 RES   0.0000
6413 O  88.1880  16.5050   0.4860 O 1 RES   0.0000
6414 O  85.8060  16.5050   0.4860 O 1 RES   0.0000
6415 O  86.9970  19.9440   2.4310 O 1 RES   0.0000
6416 Si  86.9970  19.9440   3.8900 Si 1 RES   0.0000
6417 O  86.9970  18.5680   4.3770 O 1 RES   0.0000
6418 Si  86.9970  17.1930   4.8630 Si 1 RES   0.0000
6419 O  88.1880  16.5050   4.3770 O 1 RES   0.0000
6420 O  85.8060  16.5050   4.3770 O 1 RES   0.0000
6421 Si  86.9970  17.1930   7.7810 Si 1 RES   0.0000
6422 O  88.1880  16.5050   8.2670 O 1 RES   0.0000
6423 O  85.8060  16.5050   8.2670 O 1 RES   0.0000
6424 O  86.9970  18.5680   8.2670 O 1 RES   0.0000
6425 Si  86.9970  19.9440   8.7530 Si 1 RES   0.0000
6426 O  86.9970  19.9440  10.2120 O 1 RES   0.0000
6427 O  91.7610  17.1930   6.3220 O 1 RES   0.0000
6428 Si  91.7610  17.1930   0.0000 Si 1 RES   0.0000
6429 O  91.7610  18.5680   0.4860 O 1 RES   0.0000
6430 Si  91.7610  19.9440   0.9730 Si 1 RES   0.0000
6431 O  92.9530  16.5050   0.4860 O 1 RES   0.0000
6432 O  90.5700  16.5050   0.4860 O 1 RES   0.0000
6433 O  91.7610  19.9440   2.4310 O 1 RES   0.0000
6434 Si  91.7610  19.9440   3.8900 Si 1 RES   0.0000
6435 O  91.7610  18.5680   4.3770 O 1 RES   0.0000
6436 Si  91.7610  17.1930   4.8630 Si 1 RES   0.0000
6437 O  92.9530  16.5050   4.3770 O 1 RES   0.0000
6438 O  90.5700  16.5050   4.3770 O 1 RES   0.0000
6439 Si  91.7610  17.1930   7.7810 Si 1 RES   0.0000
6440 O  92.9530  16.5050   8.2670 O 1 RES   0.0000
6441 O  90.5700  16.5050   8.2670 O 1 RES   0.0000
6442 O  91.7610  18.5680   8.2670 O 1 RES   0.0000
6443 Si  91.7610  19.9440   8.7530 Si 1 RES   0.0000
6444 O  91.7610  19.9440  10.2120 O 1 RES   0.0000
6445 O  89.3790  21.3190   6.3220 O 1 RES   0.0000
6446 Si  89.3790  21.3190   0.0000 Si 1 RES   0.0000
6447 O  89.3790  22.6940   0.4860 O 1 RES   0.0000
6448 Si  89.3790  24.0700   0.9730 Si 1 RES   0.0000
6449 O  90.5700  20.6310   0.4860 O 1 RES   0.0000
6450 O  88.1880  20.6310   0.4860 O 1 RES   0.0000
6451 O  89.3790  24.0700   2.4310 O 1 RES   0.0000
6452 Si  89.3790  24.0700   3.8900 Si 1 RES   0.0000
6453 O  89.3790  22.6940   4.3770 O 1 RES   0.0000
6454 Si  89.3790  21.3190   4.8630 Si 1 RES   0.0000
6455 O  90.5700  20.6310   4.3770 O 1 RES   0.0000
6456 O  88.1880  20.6310   4.3770 O 1 RES   0.0000
6457 Si  89.3790  21.3190   7.7810 Si 1 RES   0.0000
6458 O  90.5700  20.6310   8.2670 O 1 RES   0.0000
6459 O  88.1880  20.6310   8.2670 O 1 RES   0.0000
6460 O  89.3790  22.6940   8.2670 O 1 RES   0.0000
6461 Si  89.3790  24.0700   8.7530 Si 1 RES   0.0000
6462 O  89.3790  24.0700  10.2120 O 1 RES   0.0000
6463 O  94.1440  21.3190   6.3220 O 1 RES   0.0000
6464 Si  94.1440  21.3190   0.0000 Si 1 RES   0.0000
6465 O  94.1440  22.6940   0.4860 O 1 RES   0.0000
6466 Si  94.1440  24.0700   0.9730 Si 1 RES   0.0000
6467 O  47.6460  20.6310   0.4860 O 1 RES   0.0000
6468 O  92.9530  20.6310   0.4860 O 1 RES   0.0000
6469 O  94.1440  24.0700   2.4310 O 1 RES   0.0000
6470 Si  94.1440  24.0700   3.8900 Si 1 RES   0.0000
6471 O  94.1440  22.6940   4.3770 O 1 RES   0.0000
6472 Si  94.1440  21.3190   4.8630 Si 1 RES   0.0000
6473 O  47.6460  20.6310   4.3770 O 1 RES   0.0000
6474 O  92.9530  20.6310   4.3770 O 1 RES   0.0000
6475 Si  94.1440  21.3190   7.7810 Si 1 RES   0.0000
6476 O  47.6460  20.6310   8.2670 O 1 RES   0.0000
6477 O  92.9530  20.6310   8.2670 O 1 RES   0.0000
6478 O  94.1440  22.6940   8.2670 O 1 RES   0.0000
6479 Si  94.1440  24.0700   8.7530 Si 1 RES   0.0000
6480 O  94.1440  24.0700  10.2120 O 1 RES   0.0000
6481 O  48.8800  25.4450   6.3220 O 1 RES   0.0000
6482 Si  48.8800  25.4450   0.0000 Si 1 RES   0.0000
6483 O  48.8800  26.8210   0.4860 O 1 RES   0.0000
6484 Si  48.8800  28.1960   0.9730 Si 1 RES   0.0000
6485 O  50.0710  24.7580   0.4860 O 1 RES   0.0000
6486 O  47.6890  24.7580   0.4860 O 1 RES   0.0000
6487 O  48.8800  28.1960   2.4310 O 1 RES   0.0000
6488 Si  48.8800  28.1960   3.8900 Si 1 RES   0.0000
6489 O  48.8800  26.8210   4.3770 O 1 RES   0.0000
6490 Si  48.8800  25.4450   4.8630 Si 1 RES   0.0000
6491 O  50.0710  24.7580   4.3770 O 1 RES   0.0000
6492 O  47.6890  24.7580   4.3770 O 1 RES   0.0000
6493 Si  48.8800  25.4450   7.7810 Si 1 RES   0.0000
6494 O  50.0710  24.7580   8.2670 O 1 RES   0.0000
6495 O  47.6890  24.7580   8.2670 O 1 RES   0.0000
6496 O  48.8800  26.8210   8.2670 O 1 RES   0.0000
6497 Si  48.8800  28.1960   8.7530 Si 1 RES   0.0000
6498 O  48.8800  28.1960  10.2120 O 1 RES   0.0000
6499 O  53.6450  25.4450   6.3220 O 1 RES   0.0000
6500 Si  53.6450  25.4450   0.0000 Si 1 RES   0.0000
6501 O  53.6450  26.8210   0.4860 O 1 RES   0.0000
6502 Si  53.6450  28.1960   0.9730 Si 1 RES   0.0000
6503 O  54.8360  24.7580   0.4860 O 1 RES   0.0000
6504 O  52.4540  24.7580   0.4860 O 1 RES   0.0000
6505 O  53.6450  28.1960   2.4310 O 1 RES   0.0000
6506 Si  53.6450  28.1960   3.8900 Si 1 RES   0.0000
6507 O  53.6450  26.8210   4.3770 O 1 RES   0.0000
6508 Si  53.6450  25.4450   4.8630 Si 1 RES   0.0000
6509 O  54.8360  24.7580   4.3770 O 1 RES   0.0000
6510 O  52.4540  24.7580   4.3770 O 1 RES   0.0000
6511 Si  53.6450  25.4450   7.7810 Si 1 RES   0.0000
6512 O  54.8360  24.7580   8.2670 O 1 RES   0.0000
6513 O  52.4540  24.7580   8.2670 O 1 RES   0.0000
6514 O  53.6450  26.8210   8.2670 O 1 RES   0.0000
6515 Si  53.6450  28.1960   8.7530 Si 1 RES   0.0000
6516 O  53.6450  28.1960  10.2120 O 1 RES   0.0000
6517 O  51.2620  29.5720   6.3220 O 1 RES   0.0000
6518 Si  51.2620  29.5720   0.0000 Si 1 RES   0.0000
6519 O  51.2620  30.9470   0.4860 O 1 RES   0.0000
6520 Si  51.2620  32.3220   0.9730 Si 1 RES   0.0000
6521 O  52.4540  28.8840   0.4860 O 1 RES   0.0000
6522 O  50.0710  28.8840   0.4860 O 1 RES   0.0000
6523 O  51.2620  32.3220   2.4310 O 1 RES   0.0000
6524 Si  51.2620  32.3220   3.8900 Si 1 RES   0.0000
6525 O  51.2620  30.9470   4.3770 O 1 RES   0.0000
6526 Si  51.2620  29.5720   4.8630 Si 1 RES   0.0000
6527 O  52.4540  28.8840   4.3770 O 1 RES   0.0000
6528 O  50.0710  28.8840   4.3770 O 1 RES   0.0000
6529 Si  51.2620  29.5720   7.7810 Si 1 RES   0.0000
6530 O  52.4540  28.8840   8.2670 O 1 RES   0.0000
6531 O  50.0710  28.8840   8.2670 O 1 RES   0.0000
6532 O  51.2620  30.9470   8.2670 O 1 RES   0.0000
6533 Si  51.2620  32.3220   8.7530 Si 1 RES   0.0000
6534 O  51.2620  32.3220  10.2120 O 1 RES   0.0000
6535 O  56.0270  29.5720   6.3220 O 1 RES   0.0000
6536 Si  56.0270  29.5720   0.0000 Si 1 RES   0.0000
6537 O  56.0270  30.9470   0.4860 O 1 RES   0.0000
6538 Si  56.0270  32.3220   0.9730 Si 1 RES   0.0000
6539 O  57.2180  28.8840   0.4860 O 1 RES   0.0000
6540 O  54.8360  28.8840   0.4860 O 1 RES   0.0000
6541 O  56.0270  32.3220   2.4310 O 1 RES   0.0000
6542 Si  56.0270  32.3220   3.8900 Si 1 RES   0.0000
6543 O  56.0270  30.9470   4.3770 O 1 RES   0.0000
6544 Si  56.0270  29.5720   4.8630 Si 1 RES   0.0000
6545 O  57.2180  28.8840   4.3770 O 1 RES   0.0000
6546 O  54.8360  28.8840   4.3770 O 1 RES   0.0000
6547 Si  56.0270  29.5720   7.7810 Si 1 RES   0.0000
6548 O  57.2180  28.8840   8.2670 O 1 RES   0.0000
6549 O  54.8360  28.8840   8.2670 O 1 RES   0.0000
6550 O  56.0270  30.9470   8.2670 O 1 RES   0.0000
6551 Si  56.0270  32.3220   8.7530 Si 1 RES   0.0000
6552 O  56.0270  32.3220  10.2120 O 1 RES   0.0000
6553 O  58.4090  25.4450   6.3220 O 1 RES   0.0000
6554 Si  58.4090  25.4450   0.0000 Si 1 RES   0.0000
6555 O  58.4090  26.8210   0.4860 O 1 RES   0.0000
6556 Si  58.4090  28.1960   0.9730 Si 1 RES   0.0000
6557 O  59.6010  24.7580   0.4860 O 1 RES   0.0000
6558 O  57.2180  24.7580   0.4860 O 1 RES   0.0000
6559 O  58.4090  28.1960   2.4310 O 1 RES   0.0000
6560 Si  58.4090  28.1960   3.8900 Si 1 RES   0.0000
6561 O  58.4090  26.8210   4.3770 O 1 RES   0.0000
6562 Si  58.4090  25.4450   4.8630 Si 1 RES   0.0000
6563 O  59.6010  24.7580   4.3770 O 1 RES   0.0000
6564 O  57.2180  24.7580   4.3770 O 1 RES   0.0000
6565 Si  58.4090  25.4450   7.7810 Si 1 RES   0.0000
6566 O  59.6010  24.7580   8.2670 O 1 RES   0.0000
6567 O  57.2180  24.7580   8.2670 O 1 RES   0.0000
6568 O  58.4090  26.8210   8.2670 O 1 RES   0.0000
6569 Si  58.4090  28.1960   8.7530 Si 1 RES   0.0000
6570 O  58.4090  28.1960  10.2120 O 1 RES   0.0000
6571 O  63.1740  25.4450   6.3220 O 1 RES   0.0000
6572 Si  63.1740  25.4450   0.0000 Si 1 RES   0.0000
6573 O  63.1740  26.8210   0.4860 O 1 RES   0.0000
6574 Si  63.1740  28.1960   0.9730 Si 1 RES   0.0000
6575 O  64.3650  24.7580   0.4860 O 1 RES   0.0000
6576 O  61.9830  24.7580   0.4860 O 1 RES   0.0000
6577 O  63.1740  28.1960   2.4310 O 1 RES   0.0000
6578 Si  63.1740  28.1960   3.8900 Si 1 RES   0.0000
6579 O  63.1740  26.8210   4.3770 O 1 RES   0.0000
6580 Si  63.1740  25.4450   4.8630 Si 1 RES   0.0000
6581 O  64.3650  24.7580   4.3770 O 1 RES   0.0000
6582 O  61.9830  24.7580   4.3770 O 1 RES   0.0000
6583 Si  63.1740  25.4450   7.7810 Si 1 RES   0.0000
6584 O  64.3650  24.7580   8.2670 O 1 RES   0.0000
6585 O  61.9830  24.7580   8.2670 O 1 RES   0.0000
6586 O  63.1740  26.8210   8.2670 O 1 RES   0.0000
6587 Si  63.1740  28.1960   8.7530 Si 1 RES   0.0000
6588 O  63.1740  28.1960  10.2120 O 1 RES   0.0000
6589 O  60.7920  29.5720   6.3220 O 1 RES   0.0000
6590 Si  60.7920  29.5720   0.0000 Si 1 RES   0.0000
6591 O  60.7920  30.9470   0.4860 O 1 RES   0.0000
6592 Si  60.7920  32.3220   0.9730 Si 1 RES   0.0000
6593 O  61.9830  28.8840   0.4860 O 1 RES   0.0000
6594 O  59.6010  28.8840   0.4860 O 1 RES   0.0000
6595 O  60.7920  32.3220   2.4310 O 1 RES   0.0000
6596 Si  60.7920  32.3220   3.8900 Si 1 RES   0.0000
6597 O  60.7920  30.9470   4.3770 O 1 RES   0.0000
6598 Si  60.7920  29.5720   4.8630 Si 1 RES   0.0000
6599 O  61.9830  28.8840   4.3770 O 1 RES   0.0000
6600 O  59.6010  28.8840   4.3770 O 1 RES   0.0000
6601 Si  60.7920  29.5720   7.7810 Si 1 RES   0.0000
6602 O  61.9830  28.8840   8.2670 O 1 RES   0.0000
6603 O  59.6010  28.8840   8.2670 O 1 RES   0.0000
6604 O  60.7920  30.9470   8.2670 O 1 RES   0.0000
6605 Si  60.7920  32.3220   8.7530 Si 1 RES   0.0000
6606 O  60.7920  32.3220  10.2120 O 1 RES   0.0000
6607 O  65.5560  29.5720   6.3220 O 1 RES   0.0000
6608 Si  65.5560  29.5720   0.0000 Si 1 RES   0.0000
6609 O  65.5560  30.9470   0.4860 O 1 RES   0.0000
6610 Si  65.5560  32.3220   0.9730 Si 1 RES   0.0000
6611 O  66.7470  28.8840   0.4860 O 1 RES   0.0000
6612 O  64.3650  28.8840   0.4860 O 1 RES   0.0000
6613 O  65.5560  32.3220   2.4310 O 1 RES   0.0000
6614 Si  65.5560  32.3220   3.8900 Si 1 RES   0.0000
6615 O  65.5560  30.9470   4.3770 O 1 RES   0.0000
6616 Si  65.5560  29.5720   4.8630 Si 1 RES   0.0000
6617 O  66.7470  28.8840   4.3770 O 1 RES   0.0000
6618 O  64.3650  28.8840   4.3770 O 1 RES   0.0000
6619 Si  65.5560  29.5720   7.7810 Si 1 RES   0.0000
6620 O  66.7470  28.8840   8.2670 O 1 RES   0.0000
6621 O  64.3650  28.8840   8.2670 O 1 RES   0.0000
6622 O  65.5560  30.9470   8.2670 O 1 RES   0.0000
6623 Si  65.5560  32.3220   8.7530 Si 1 RES   0.0000
6624 O  65.5560  32.3220  10.2120 O 1 RES   0.0000
6625 O  67.9390  25.4450   6.3220 O 1 RES   0.0000
6626 Si  67.9390  25.4450   0.0000 Si 1 RES   0.0000
6627 O  67.9390  26.8210   0.4860 O 1 RES   0.0000
6628 Si  67.9390  28.1960   0.9730 Si 1 RES   0.0000
6629 O  69.1300  24.7580   0.4860 O 1 RES   0.0000
6630 O  66.7470  24.7580   0.4860 O 1 RES   0.0000
6631 O  67.9390  28.1960   2.4310 O 1 RES   0.0000
6632 Si  67.9390  28.1960   3.8900 Si 1 RES   0.0000
6633 O  67.9390  26.8210   4.3770 O 1 RES   0.0000
6634 Si  67.9390  25.4450   4.8630 Si 1 RES   0.0000
6635 O  69.1300  24.7580   4.3770 O 1 RES   0.0000
6636 O  66.7470  24.7580   4.3770 O 1 RES   0.0000
6637 Si  67.9390  25.4450   7.7810 Si 1 RES   0.0000
6638 O  69.1300  24.7580   8.2670 O 1 RES   0.0000
6639 O  66.7470  24.7580   8.2670 O 1 RES   0.0000
6640 O  67.9390  26.8210   8.2670 O 1 RES   0.0000
6641 Si  67.9390  28.1960   8.7530 Si 1 RES   0.0000
6642 O  67.9390  28.1960  10.2120 O 1 RES   0.0000
6643 O  72.7030  25.4450   6.3220 O 1 RES   0.0000
6644 Si  72.7030  25.4450   0.0000 Si 1 RES   0.0000
6645 O  72.7030  26.8210   0.4860 O 1 RES   0.0000
6646 Si  72.7030  28.1960   0.9730 Si 1 RES   0.0000
6647 O  73.8940  24.7580   0.4860 O 1 RES   0.0000
6648 O  71.5120  24.7580   0.4860 O 1 RES   0.0000
6649 O  72.7030  28.1960   2.4310 O 1 RES   0.0000
6650 Si  72.7030  28.1960   3.8900 Si 1 RES   0.0000
6651 O  72.7030  26.8210   4.3770 O 1 RES   0.0000
6652 Si  72.7030  25.4450   4.8630 Si 1 RES   0.0000
6653 O  73.8940  24.7580   4.3770 O 1 RES   0.0000
6654 O  71.5120  24.7580   4.3770 O 1 RES   0.0000
6655 Si  72.7030  25.4450   7.7810 Si 1 RES   0.0000
6656 O  73.8940  24.7580   8.2670 O 1 RES   0.0000
6657 O  71.5120  24.7580   8.2670 O 1 RES   0.0000
6658 O  72.7030  26.8210   8.2670 O 1 RES   0.0000
6659 Si  72.7030  28.1960   8.7530 Si 1 RES   0.0000
6660 O  72.7030  28.1960  10.2120 O 1 RES   0.0000
6661 O  70.3210  29.5720   6.3220 O 1 RES   0.0000
6662 Si  70.3210  29.5720   0.0000 Si 1 RES   0.0000
6663 O  70.3210  30.9470   0.4860 O 1 RES   0.0000
6664 Si  70.3210  32.3220   0.9730 Si 1 RES   0.0000
6665 O  71.5120  28.8840   0.4860 O 1 RES   0.0000
6666 O  69.1300  28.8840   0.4860 O 1 RES   0.0000
6667 O  70.3210  32.3220   2.4310 O 1 RES   0.0000
6668 Si  70.3210  32.3220   3.8900 Si 1 RES   0.0000
6669 O  70.3210  30.9470   4.3770 O 1 RES   0.0000
6670 Si  70.3210  29.5720   4.8630 Si 1 RES   0.0000
6671 O  71.5120  28.8840   4.3770 O 1 RES   0.0000
6672 O  69.1300  28.8840   4.3770 O 1 RES   0.0000
6673 Si  70.3210  29.5720   7.7810 Si 1 RES   0.0000
6674 O  71.5120  28.8840   8.2670 O 1 RES   0.0000
6675 O  69.1300  28.8840   8.2670 O 1 RES   0.0000
6676 O  70.3210  30.9470   8.2670 O 1 RES   0.0000
6677 Si  70.3210  32.3220   8.7530 Si 1 RES   0.0000
6678 O  70.3210  32.3220  10.2120 O 1 RES   0.0000
6679 O  75.0850  29.5720   6.3220 O 1 RES   0.0000
6680 Si  75.0850  29.5720   0.0000 Si 1 RES   0.0000
6681 O  75.0850  30.9470   0.4860 O 1 RES   0.0000
6682 Si  75.0850  32.3220   0.9730 Si 1 RES   0.0000
6683 O  76.2760  28.8840   0.4860 O 1 RES   0.0000
6684 O  73.8940  28.8840   0.4860 O 1 RES   0.0000
6685 O  75.0850  32.3220   2.4310 O 1 RES   0.0000
6686 Si  75.0850  32.3220   3.8900 Si 1 RES   0.0000
6687 O  75.0850  30.9470   4.3770 O 1 RES   0.0000
6688 Si  75.0850  29.5720   4.8630 Si 1 RES   0.0000
6689 O  76.2760  28.8840   4.3770 O 1 RES   0.0000
6690 O  73.8940  28.8840   4.3770 O 1 RES   0.0000
6691 Si  75.0850  29.5720   7.7810 Si 1 RES   0.0000
6692 O  76.2760  28.8840   8.2670 O 1 RES   0.0000
6693 O  73.8940  28.8840   8.2670 O 1 RES   0.0000
6694 O  75.0850  30.9470   8.2670 O 1 RES   0.0000
6695 Si  75.0850  32.3220   8.7530 Si 1 RES   0.0000
6696 O  75.0850  32.3220  10.2120 O 1 RES   0.0000
6697 O  77.4680  25.4450   6.3220 O 1 RES   0.0000
6698 Si  77.4680  25.4450   0.0000 Si 1 RES   0.0000
6699 O  77.4680  26.8210   0.4860 O 1 RES   0.0000
6700 Si  77.4680  28.1960   0.9730 Si 1 RES   0.0000
6701 O  78.6590  24.7580   0.4860 O 1 RES   0.0000
6702 O  76.2760  24.7580   0.4860 O 1 RES   0.0000
6703 O  77.4680  28.1960   2.4310 O 1 RES   0.0000
6704 Si  77.4680  28.1960   3.8900 Si 1 RES   0.0000
6705 O  77.4680  26.8210   4.3770 O 1 RES   0.0000
6706 Si  77.4680  25.4450   4.8630 Si 1 RES   0.0000
6707 O  78.6590  24.7580   4.3770 O 1 RES   0.0000
6708 O  76.2760  24.7580   4.3770 O 1 RES   0.0000
6709 Si  77.4680  25.4450   7.7810 Si 1 RES   0.0000
6710 O  78.6590  24.7580   8.2670 O 1 RES   0.0000
6711 O  76.2760  24.7580   8.2670 O 1 RES   0.0000
6712 O  77.4680  26.8210   8.2670 O 1 RES   0.0000
6713 Si  77.4680  28.1960   8.7530 Si 1 RES   0.0000
6714 O  77.4680  28.1960  10.2120 O 1 RES   0.0000
6715 O  82.2320  25.4450   6.3220 O 1 RES   0.0000
6716 Si  82.2320  25.4450   0.0000 Si 1 RES   0.0000
6717 O  82.2320  26.8210   0.4860 O 1 RES   0.0000
6718 Si  82.2320  28.1960   0.9730 Si 1 RES   0.0000
6719 O  83.4230  24.7580   0.4860 O 1 RES   0.0000
6720 O  81.0410  24.7580   0.4860 O 1 RES   0.0000
6721 O  82.2320  28.1960   2.4310 O 1 RES   0.0000
6722 Si  82.2320  28.1960   3.8900 Si 1 RES   0.0000
6723 O  82.2320  26.8210   4.3770 O 1 RES   0.0000
6724 Si  82.2320  25.4450   4.8630 Si 1 RES   0.0000
6725 O  83.4230  24.7580   4.3770 O 1 RES   0.0000
6726 O  81.0410  24.7580   4.3770 O 1 RES   0.0000
6727 Si  82.2320  25.4450   7.7810 Si 1 RES   0.0000
6728 O  83.4230  24.7580   8.2670 O 1 RES   0.0000
6729 O  81.0410  24.7580   8.2670 O 1 RES   0.0000
6730 O  82.2320  26.8210   8.2670 O 1 RES   0.0000
6731 Si  82.2320  28.1960   8.7530 Si 1 RES   0.0000
6732 O  82.2320  28.1960  10.2120 O 1 RES   0.0000
6733 O  79.8500  29.5720   6.3220 O 1 RES   0.0000
6734 Si  79.8500  29.5720   0.0000 Si 1 RES   0.0000
6735 O  79.8500  30.9470   0.4860 O 1 RES   0.0000
6736 Si  79.8500  32.3220   0.9730 Si 1 RES   0.0000
6737 O  81.0410  28.8840   0.4860 O 1 RES   0.0000
6738 O  78.6590  28.8840   0.4860 O 1 RES   0.0000
6739 O  79.8500  32.3220   2.4310 O 1 RES   0.0000
6740 Si  79.8500  32.3220   3.8900 Si 1 RES   0.0000
6741 O  79.8500  30.9470   4.3770 O 1 RES   0.0000
6742 Si  79.8500  29.5720   4.8630 Si 1 RES   0.0000
6743 O  81.0410  28.8840   4.3770 O 1 RES   0.0000
6744 O  78.6590  28.8840   4.3770 O 1 RES   0.0000
6745 Si  79.8500  29.5720   7.7810 Si 1 RES   0.0000
6746 O  81.0410  28.8840   8.2670 O 1 RES   0.0000
6747 O  78.6590  28.8840   8.2670 O 1 RES   0.0000
6748 O  79.8500  30.9470   8.2670 O 1 RES   0.0000
6749 Si  79.8500  32.3220   8.7530 Si 1 RES   0.0000
6750 O  79.8500  32.3220  10.2120 O 1 RES   0.0000
6751 O  84.6140  29.5720   6.3220 O 1 RES   0.0000
6752 Si  84.6140  29.5720   0.0000 Si 1 RES   0.0000
6753 O  84.6140  30.9470   0.4860 O 1 RES   0.0000
6754 Si  84.6140  32.3220   0.9730 Si 1 RES   0.0000
6755 O  85.8060  28.8840   0.4860 O 1 RES   0.0000
6756 O  83.4230  28.8840   0.4860 O 1 RES   0.0000
6757 O  84.6140  32.3220   2.4310 O 1 RES   0.0000
6758 Si  84.6140  32.3220   3.8900 Si 1 RES   0.0000
6759 O  84.6140  30.9470   4.3770 O 1 RES   0.0000
6760 Si  84.6140  29.5720   4.8630 Si 1 RES   0.0000
6761 O  85.8060  28.8840   4.3770 O 1 RES   0.0000
6762 O  83.4230  28.8840   4.3770 O 1 RES   0.0000
6763 Si  84.6140  29.5720   7.7810 Si 1 RES   0.0000
6764 O  85.8060  28.8840   8.2670 O 1 RES   0.0000
6765 O  83.4230  28.8840   8.2670 O 1 RES   0.0000
6766 O  84.6140  30.9470   8.2670 O 1 RES   0.0000
6767 Si  84.6140  32.3220   8.7530 Si 1 RES   0.0000
6768 O  84.6140  32.3220  10.2120 O 1 RES   0.0000
6769 O  86.9970  25.4450   6.3220 O 1 RES   0.0000
6770 Si  86.9970  25.4450   0.0000 Si 1 RES   0.0000
6771 O  86.9970  26.8210   0.4860 O 1 RES   0.0000
6772 Si  86.9970  28.1960   0.9730 Si 1 RES   0.0000
6773 O  88.1880  24.7580   0.4860 O 1 RES   0.0000
6774 O  85.8060  24.7580   0.4860 O 1 RES   0.0000
6775 O  86.9970  28.1960   2.4310 O 1 RES   0.0000
6776 Si  86.9970  28.1960   3.8900 Si 1 RES   0.0000
6777 O  86.9970  26.8210   4.3770 O 1 RES   0.0000
6778 Si  86.9970  25.4450   4.8630 Si 1 RES   0.0000
6779 O  88.1880  24.7580   4.3770 O 1 RES   0.0000
6780 O  85.8060  24.7580   4.3770 O 1 RES   0.0000
6781 Si  86.9970  25.4450   7.7810 Si 1 RES   0.0000
6782 O  88.1880  24.7580   8.2670 O 1 RES   0.0000
6783 O  85.8060  24.7580   8.2670 O 1 RES   0.0000
6784 O  86.9970  26.8210   8.2670 O 1 RES   0.0000
6785 Si  86.9970  28.1960   8.7530 Si 1 RES   0.0000
6786 O  86.9970  28.1960  10.2120 O 1 RES   0.0000
6787 O  91.7610  25.4450   6.3220 O 1 RES   0.0000
6788 Si  91.7610  25.4450   0.0000 Si 1 RES   0.0000
6789 O  91.7610  26.8210   0.4860 O 1 RES   0.0000
6790 Si  91.7610  28.1960   0.9730 Si 1 RES   0.0000
6791 O  92.9530  24.7580   0.4860 O 1 RES   0.0000
6792 O  90.5700  24.7580   0.4860 O 1 RES   0.0000
6793 O  91.7610  28.1960   2.4310 O 1 RES   0.0000
6794 Si  91.7610  28.1960   3.8900 Si 1 RES   0.0000
6795 O  91.7610  26.8210   4.3770 O 1 RES   0.0000
6796 Si  91.7610  25.4450   4.8630 Si 1 RES   0.0000
6797 O  92.9530  24.7580   4.3770 O 1 RES   0.0000
6798 O  90.5700  24.7580   4.3770 O 1 RES   0.0000
6799 Si  91.7610  25.4450   7.7810 Si 1 RES   0.0000
6800 O  92.9530  24.7580   8.2670 O 1 RES   0.0000
6801 O  90.5700  24.7580   8.2670 O 1 RES   0.0000
6802 O  91.7610  26.8210   8.2670 O 1 RES   0.0000
6803 Si  91.7610  28.1960   8.7530 Si 1 RES   0.0000
6804 O  91.7610  28.1960  10.2120 O 1 RES   0.0000
6805 O  89.3790  29.5720   6.3220 O 1 RES   0.0000
6806 Si  89.3790  29.5720   0.0000 Si 1 RES   0.0000
6807 O  89.3790  30.9470   0.4860 O 1 RES   0.0000
6808 Si  89.3790  32.3220   0.9730 Si 1 RES   0.0000
6809 O  90.5700  28.8840   0.4860 O 1 RES   0.0000
6810 O  88.1880  28.8840   0.4860 O 1 RES   0.0000
6811 O  89.3790  32.3220   2.4310 O 1 RES   0.0000
6812 Si  89.3790  32.3220   3.8900 Si 1 RES   0.0000
6813 O  89.3790  30.9470   4.3770 O 1 RES   0.0000
6814 Si  89.3790  29.5720   4.8630 Si 1 RES   0.0000
6815 O  90.5700  28.8840   4.3770 O 1 RES   0.0000
6816 O  88.1880  28.8840   4.3770 O 1 RES   0.0000
6817 Si  89.3790  29.5720   7.7810 Si 1 RES   0.0000
6818 O  90.5700  28.8840   8.2670 O 1 RES   0.0000
6819 O  88.1880  28.8840   8.2670 O 1 RES   0.0000
6820 O  89.3790  30.9470   8.2670 O 1 RES   0.0000
6821 Si  89.3790  32.3220   8.7530 Si 1 RES   0.0000
6822 O  89.3790  32.3220  10.2120 O 1 RES   0.0000
6823 O  94.1440  29.5720   6.3220 O 1 RES   0.0000
6824 Si  94.1440  29.5720   0.0000 Si 1 RES   0.0000
6825 O  94.1440  30.9470   0.4860 O 1 RES   0.0000
6826 Si  94.1440  32.3220   0.9730 Si 1 RES   0.0000
6827 O  47.6460  28.8840   0.4860 O 1 RES   0.0000
6828 O  92.9530  28.8840   0.4860 O 1 RES   0.0000
6829 O  94.1440  32.3220   2.4310 O 1 RES   0.0000
6830 Si  94.1440  32.3220   3.8900 Si 1 RES   0.0000
6831 O  94.1440  30.9470   4.3770 O 1 RES   0.0000
6832 Si  94.1440  29.5720   4.8630 Si 1 RES   0.0000
6833 O  47.6460  28.8840   4.3770 O 1 RES   0.0000
6834 O  92.9530  28.8840   4.3770 O 1 RES   0.0000
6835 Si  94.1440  29.5720   7.7810 Si 1 RES   0.0000
6836 O  47.6460  28.8840   8.2670 O 1 RES   0.0000
6837 O  92.9530  28.8840   8.2670 O 1 RES   0.0000
6838 O  94.1440  30.9470   8.2670 O 1 RES   0.0000
6839 Si  94.1440  32.3220   8.7530 Si 1 RES   0.0000
6840 O  94.1440  32.3220  10.2120 O 1 RES   0.0000
6841 O  48.8800  33.6980   6.3220 O 1 RES   0.0000
6842 Si  48.8800  33.6980   0.0000 Si 1 RES   0.0000
6843 O  48.8800  35.0730   0.4860 O 1 RES   0.0000
6844 Si  48.8800  36.4490   0.9730 Si 1 RES   0.0000
6845 O  50.0710  33.0100   0.4860 O 1 RES   0.0000
6846 O  47.6890  33.0100   0.4860 O 1 RES   0.0000
6847 O  48.8800  36.4490   2.4310 O 1 RES   0.0000
6848 Si  48.8800  36.4490   3.8900 Si 1 RES   0.0000
6849 O  48.8800  35.0730   4.3770 O 1 RES   0.0000
6850 Si  48.8800  33.6980   4.8630 Si 1 RES   0.0000
6851 O  50.0710  33.0100   4.3770 O 1 RES   0.0000
6852 O  47.6890  33.0100   4.3770 O 1 RES   0.0000
6853 Si  48.8800  33.6980   7.7810 Si 1 RES   0.0000
6854 O  50.0710  33.0100   8.2670 O 1 RES   0.0000
6855 O  47.6890  33.0100   8.2670 O 1 RES   0.0000
6856 O  48.8800  35.0730   8.2670 O 1 RES   0.0000
6857 Si  48.8800  36.4490   8.7530 Si 1 RES   0.0000
6858 O  48.8800  36.4490  10.2120 O 1 RES   0.0000
6859 O  53.6450  33.6980   6.3220 O 1 RES   0.0000
6860 Si  53.6450  33.6980   0.0000 Si 1 RES   0.0000
6861 O  53.6450  35.0730   0.4860 O 1 RES   0.0000
6862 Si  53.6450  36.4490   0.9730 Si 1 RES   0.0000
6863 O  54.8360  33.0100   0.4860 O 1 RES   0.0000
6864 O  52.4540  33.0100   0.4860 O 1 RES   0.0000
6865 O  53.6450  36.4490   2.4310 O 1 RES   0.0000
6866 Si  53.6450  36.4490   3.8900 Si 1 RES   0.0000
6867 O  53.6450  35.0730   4.3770 O 1 RES   0.0000
6868 Si  53.6450  33.6980   4.8630 Si 1 RES   0.0000
6869 O  54.8360  33.0100   4.3770 O 1 RES   0.0000
6870 O  52.4540  33.0100   4.3770 O 1 RES   0.0000
6871 Si  53.6450  33.6980   7.7810 Si 1 RES   0.0000
6872 O  54.8360  33.0100   8.2670 O 1 RES   0.0000
6873 O  52.4540  33.0100   8.2670 O 1 RES   0.0000
6874 O  53.6450  35.0730   8.2670 O 1 RES   0.0000
6875 Si  53.6450  36.4490   8.7530 Si 1 RES   0.0000
6876 O  53.6450  36.4490  10.2120 O 1 RES   0.0000
6877 O  51.2620  37.8240   6.3220 O 1 RES   0.0000
6878 Si  51.2620  37.8240   0.0000 Si 1 RES   0.0000
6879 O  51.2620  39.1990   0.4860 O 1 RES   0.0000
6880 Si  51.2620  -0.7250   0.9730 Si 1 RES   0.0000
6881 O  52.4540  37.1360   0.4860 O 1 RES   0.0000
6882 O  50.0710  37.1360   0.4860 O 1 RES   0.0000
6883 O  51.2620  -0.7250   2.4310 O 1 RES   0.0000
6884 Si  51.2620  -0.7250   3.8900 Si 1 RES   0.0000
6885 O  51.2620  39.1990   4.3770 O 1 RES   0.0000
6886 Si  51.2620  37.8240   4.8630 Si 1 RES   0.0000
6887 O  52.4540  37.1360   4.3770 O 1 RES   0.0000
6888 O  50.0710  37.1360   4.3770 O 1 RES   0.0000
6889 Si  51.2620  37.8240   7.7810 Si 1 RES   0.0000
6890 O  52.4540  37.1360   8.2670 O 1 RES   0.0000
6891 O  50.0710  37.1360   8.2670 O 1 RES   0.0000
6892 O  51.2620  39.1990   8.2670 O 1 RES   0.0000
6893 Si  51.2620  -0.7250   8.7530 Si 1 RES   0.0000
6894 O  51.2620  -0.7250  10.2120 O 1 RES   0.0000
6895 O  56.0270  37.8240   6.3220 O 1 RES   0.0000
6896 Si  56.0270  37.8240   0.0000 Si 1 RES   0.0000
6897 O  56.0270  39.1990   0.4860 O 1 RES   0.0000
6898 Si  56.0270  -0.7250   0.9730 Si 1 RES   0.0000
6899 O  57.2180  37.1360   0.4860 O 1 RES   0.0000
6900 O  54.8360  37.1360   0.4860 O 1 RES   0.0000
6901 O  56.0270  -0.7250   2.4310 O 1 RES   0.0000
6902 Si  56.0270  -0.7250   3.8900 Si 1 RES   0.0000
6903 O  56.0270  39.1990   4.3770 O 1 RES   0.0000
6904 Si  56.0270  37.8240   4.8630 Si 1 RES   0.0000
6905 O  57.2180  37.1360   4.3770 O 1 RES   0.0000
6906 O  54.8360  37.1360   4.3770 O 1 RES   0.0000
6907 Si  56.0270  37.8240   7.7810 Si 1 RES   0.0000
6908 O  57.2180  37.1360   8.2670 O 1 RES   0.0000
6909 O  54.8360  37.1360   8.2670 O 1 RES   0.0000
6910 O  56.0270  39.1990   8.2670 O 1 RES   0.0000
6911 Si  56.0270  -0.7250   8.7530 Si 1 RES   0.0000
6912 O  56.0270  -0.7250  10.2120 O 1 RES   0.0000
6913 O  58.4090  33.6980   6.3220 O 1 RES   0.0000
6914 Si  58.4090  33.6980   0.0000 Si 1 RES   0.0000
6915 O  58.4090  35.0730   0.4860 O 1 RES   0.0000
6916 Si  58.4090  36.4490   0.9730 Si 1 RES   0.0000
6917 O  59.6010  33.0100   0.4860 O 1 RES   0.0000
6918 O  57.2180  33.0100   0.4860 O 1 RES   0.0000
6919 O  58.4090  36.4490   2.4310 O 1 RES   0.0000
6920 Si  58.4090  36.4490   3.8900 Si 1 RES   0.0000
6921 O  58.4090  35.0730   4.3770 O 1 RES   0.0000
6922 Si  58.4090  33.6980   4.8630 Si 1 RES   0.0000
6923 O  59.6010  33.0100   4.3770 O 1 RES   0.0000
6924 O  57.2180  33.0100   4.3770 O 1 RES   0.0000
6925 Si  58.4090  33.6980   7.7810 Si 1 RES   0.0000
6926 O  59.6010  33.0100   8.2670 O 1 RES   0.0000
6927 O  57.2180  33.0100   8.2670 O 1 RES   0.0000
6928 O  58.4090  35.0730   8.2670 O 1 RES   0.0000
6929 Si  58.4090  36.4490   8.7530 Si 1 RES   0.0000
6930 O  58.4090  36.4490  10.2120 O 1 RES   0.0000
6931 O  63.1740  33.6980   6.3220 O 1 RES   0.0000
6932 Si  63.1740  33.6980   0.0000 Si 1 RES   0.0000
6933 O  63.1740  35.0730   0.4860 O 1 RES   0.0000
6934 Si  63.1740  36.4490   0.9730 Si 1 RES   0.0000
6935 O  64.3650  33.0100   0.4860 O 1 RES   0.0000
6936 O  61.9830  33.0100   0.4860 O 1 RES   0.0000
6937 O  63.1740  36.4490   2.4310 O 1 RES   0.0000
6938 Si  63.1740  36.4490   3.8900 Si 1 RES   0.0000
6939 O  63.1740  35.0730   4.3770 O 1 RES   0.0000
6940 Si  63.1740  33.6980   4.8630 Si 1 RES   0.0000
6941 O  64.3650  33.0100   4.3770 O 1 RES   0.0000
6942 O  61.9830  33.0100   4.3770 O 1 RES   0.0000
6943 Si  63.1740  33.6980   7.7810 Si 1 RES   0.0000
6944 O  64.3650  33.0100   8.2670 O 1 RES   0.0000
6945 O  61.9830  33.0100   8.2670 O 1 RES   0.0000
6946 O  63.1740  35.0730   8.2670 O 1 RES   0.0000
6947 Si  63.1740  36.4490   8.7530 Si 1 RES   0.0000
6948 O  63.1740  36.4490  10.2120 O 1 RES   0.0000
6949 O  60.7920  37.8240   6.3220 O 1 RES   0.0000
6950 Si  60.7920  37.8240   0.0000 Si 1 RES   0.0000
6951 O  60.7920  39.1990   0.4860 O 1 RES   0.0000
6952 Si  60.7920  -0.7250   0.9730 Si 1 RES   0.0000
6953 O  61.9830  37.1360   0.4860 O 1 RES   0.0000
6954 O  59.6010  37.1360   0.4860 O 1 RES   0.0000
6955 O  60.7920  -0.7250   2.4310 O 1 RES   0.0000
6956 Si  60.7920  -0.7250   3.8900 Si 1 RES   0.0000
6957 O  60.7920  39.1990   4.3770 O 1 RES   0.0000
6958 Si  60.7920  37.8240   4.8630 Si 1 RES   0.0000
6959 O  61.9830  37.1360   4.3770 O 1 RES   0.0000
6960 O  59.6010  37.1360   4.3770 O 1 RES   0.0000
6961 Si  60.7920  37.8240   7.7810 Si 1 RES   0.0000
6962 O  61.9830  37.1360   8.2670 O 1 RES   0.0000
6963 O  59.6010  37.1360   8.2670 O 1 RES   0.0000
6964 O  60.7920  39.1990   8.2670 O 1 RES   0.0000
6965 Si  60.7920  -0.7250   8.7530 Si 1 RES   0.0000
6966 O  60.7920  -0.7250  10.2120 O 1 RES   0.0000
6967 O  65.5560  37.8240   6.3220 O 1 RES   0.0000
6968 Si  65.5560  37.8240   0.0000 Si 1 RES   0.0000
6969 O  65.5560  39.1990   0.4860 O 1 RES   0.0000
6970 Si  65.5560  -0.7250   0.9730 Si 1 RES   0.0000
6971 O  66.7470  37.1360   0.4860 O 1 RES   0.0000
6972 O  64.3650  37.1360   0.4860 O 1 RES   0.0000
6973 O  65.5560  -0.7250   2.4310 O 1 RES   0.0000
6974 Si  65.5560  -0.7250   3.8900 Si 1 RES   0.0000
6975 O  65.5560  39.1990   4.3770 O 1 RES   0.0000
6976 Si  65.5560  37.8240   4.8630 Si 1 RES   0.0000
6977 O  66.7470  37.1360   4.3770 O 1 RES   0.0000
6978 O  64.3650  37.1360   4.3770 O 1 RES   0.0000
6979 Si  65.5560  37.8240   7.7810 Si 1 RES   0.0000
6980 O  66.7470  37.1360   8.2670 O 1 RES   0.0000
6981 O  64.3650  37.1360   8.2670 O 1 RES   0.0000
6982 O  65.5560  39.1990   8.2670 O 1 RES   0.0000
6983 Si  65.5560  -0.7250   8.7530 Si 1 RES   0.0000
6984 O  65.5560  -0.7250  10.2120 O 1 RES   0.0000
6985 O  67.9390  33.6980   6.3220 O 1 RES   0.0000
6986 Si  67.9390  33.6980   0.0000 Si 1 RES   0.0000
6987 O  67.9390  35.0730   0.4860 O 1 RES   0.0000
6988 Si  67.9390  36.4490   0.9730 Si 1 RES   0.0000
6989 O  69.1300  33.0100   0.4860 O 1 RES   0.0000
6990 O  66.7470  33.0100   0.4860 O 1 RES   0.0000
6991 O  67.9390  36.4490   2.4310 O 1 RES   0.0000
6992 Si  67.9390  36.4490   3.8900 Si 1 RES   0.0000
6993 O  67.9390  35.0730   4.3770 O 1 RES   0.0000
6994 Si  67.9390  33.6980   4.8630 Si 1 RES   0.0000
6995 O  69.1300  33.0100   4.3770 O 1 RES   0.0000
6996 O  66.7470  33.0100   4.3770 O 1 RES   0.0000
6997 Si  67.9390  33.6980   7.7810 Si 1 RES   0.0000
6998 O  69.1300  33.0100   8.2670 O 1 RES   0.0000
6999 O  66.7470  33.0100   8.2670 O 1 RES   0.0000
7000 O  67.9390  35.0730   8.2670 O 1 RES   0.0000
7001 Si  67.9390  36.4490   8.7530 Si 1 RES   0.0000
7002 O  67.9390  36.4490  10.2120 O 1 RES   0.0000
7003 O  72.7030  33.6980   6.3220 O 1 RES   0.0000
7004 Si  72.7030  33.6980   0.0000 Si 1 RES   0.0000
7005 O  72.7030  35.0730   0.4860 O 1 RES   0.0000
7006 Si  72.7030  36.4490   0.9730 Si 1 RES   0.0000
7007 O  73.8940  33.0100   0.4860 O 1 RES   0.0000
7008 O  71.5120  33.0100   0.4860 O 1 RES   0.0000
7009 O  72.7030  36.4490   2.4310 O 1 RES   0.0000
7010 Si  72.7030  36.4490   3.8900 Si 1 RES   0.0000
7011 O  72.7030  35.0730   4.3770 O 1 RES   0.0000
7012 Si  72.7030  33.6980   4.8630 Si 1 RES   0.0000
7013 O  73.8940  33.0100   4.3770 O 1 RES   0.0000
7014 O  71.5120  33.0100   4.3770 O 1 RES   0.0000
7015 Si  72.7030  33.6980   7.7810 Si 1 RES   0.0000
7016 O  73.8940  33.0100   8.2670 O 1 RES   0.0000
7017 O  71.5120  33.0100   8.2670 O 1 RES   0.0000
7018 O  72.7030  35.0730   8.2670 O 1 RES   0.0000
7019 Si  72.7030  36.4490   8.7530 Si 1 RES   0.0000
7020 O  72.7030  36.4490  10.2120 O 1 RES   0.0000
7021 O  70.3210  37.8240   6.3220 O 1 RES   0.0000
7022 Si  70.3210  37.8240   0.0000 Si 1 RES   0.0000
7023 O  70.3210  39.1990   0.4860 O 1 RES   0.0000
7024 Si  70.3210  -0.7250   0.9730 Si 1 RES   0.0000
7025 O  71.5120  37.1360   0.4860 O 1 RES   0.0000
7026 O  69.1300  37.1360   0.4860 O 1 RES   0.0000
7027 O  70.3210  -0.7250   2.4310 O 1 RES   0.0000
7028 Si  70.3210  -0.7250   3.8900 Si 1 RES   0.0000
7029 O  70.3210  39.1990   4.3770 O 1 RES   0.0000
7030 Si  70.3210  37.8240   4.8630 Si 1 RES   0.0000
7031 O  71.5120  37.1360   4.3770 O 1 RES   0.0000
7032 O  69.1300  37.1360   4.3770 O 1 RES   0.0000
7033 Si  70.3210  37.8240   7.7810 Si 1 RES   0.0000
7034 O  71.5120  37.1360   8.2670 O 1 RES   0.0000
7035 O  69.1300  37.1360   8.2670 O 1 RES   0.0000
7036 O  70.3210  39.1990   8.2670 O 1 RES   0.0000
7037 Si  70.3210  -0.7250   8.7530 Si 1 RES   0.0000
7038 O  70.3210  -0.7250  10.2120 O 1 RES   0.0000
7039 O  75.0850  37.8240   6.3220 O 1 RES   0.0000
7040 Si  75.0850  37.8240   0.0000 Si 1 RES   0.0000
7041 O  75.0850  39.1990   0.4860 O 1 RES   0.0000
7042 Si  75.0850  -0.7250   0.9730 Si 1 RES   0.0000
7043 O  76.2760  37.1360   0.4860 O 1 RES   0.0000
7044 O  73.8940  37.1360   0.4860 O 1 RES   0.0000
7045 O  75.0850  -0.7250   2.4310 O 1 RES   0.0000
7046 Si  75.0850  -0.7250   3.8900 Si 1 RES   0.0000
7047 O  75.0850  39.1990   4.3770 O 1 RES   0.0000
7048 Si  75.0850  37.8240   4.8630 Si 1 RES   0.0000
7049 O  76.2760  37.1360   4.3770 O 1 RES   0.0000
7050 O  73.8940  37.1360   4.3770 O 1 RES   0.0000
7051 Si  75.0850  37.8240   7.7810 Si 1 RES   0.0000
7052 O  76.2760  37.1360   8.2670 O 1 RES   0.0000
7053 O  73.8940  37.1360   8.2670 O 1 RES   0.0000
7054 O  75.0850  39.1990   8.2670 O 1 RES   0.0000
7055 Si  75.0850  -0.7250   8.7530 Si 1 RES   0.0000
7056 O  75.0850  -0.7250  10.2120 O 1 RES   0.0000
7057 O  77.4680  33.6980   6.3220 O 1 RES   0.0000
7058 Si  77.4680  33.6980   0.0000 Si 1 RES   0.0000
7059 O  77.4680  35.0730   0.4860 O 1 RES   0.0000
7060 Si  77.4680  36.4490   0.9730 Si 1 RES   0.0000
7061 O  78.6590  33.0100   0.4860 O 1 RES   0.0000
7062 O  76.2760  33.0100   0.4860 O 1 RES   0.0000
7063 O  77.4680  36.4490   2.4310 O 1 RES   0.0000
7064 Si  77.4680  36.4490   3.8900 Si 1 RES   0.0000
7065 O  77.4680  35.0730   4.3770 O 1 RES   0.0000
7066 Si  77.4680  33.6980   4.8630 Si 1 RES   0.0000
7067 O  78.6590  33.0100   4.3770 O 1 RES   0.0000
7068 O  76.2760  33.0100   4.3770 O 1 RES   0.0000
7069 Si  77.4680  33.6980   7.7810 Si 1 RES   0.0000
7070 O  78.6590  33.0100   8.2670 O 1 RES   0.0000
7071 O  76.2760  33.0100   8.2670 O 1 RES   0.0000
7072 O  77.4680  35.0730   8.2670 O 1 RES   0.0000
7073 Si  77.4680  36.4490   8.7530 Si 1 RES   0.0000
7074 O  77.4680  36.4490  10.2120 O 1 RES   0.0000
7075 O  82.2320  33.6980   6.3220 O 1 RES   0.0000
7076 Si  82.2320  33.6980   0.0000 Si 1 RES   0.0000
7077 O  82.2320  35.0730   0.4860 O 1 RES   0.0000
7078 Si  82.2320  36.4490   0.9730 Si 1 RES   0.0000
7079 O  83.4230  33.0100   0.4860 O 1 RES   0.0000
7080 O  81.0410  33.0100   0.4860 O 1 RES   0.0000
7081 O  82.2320  36.4490   2.4310 O 1 RES   0.0000
7082 Si  82.2320  36.4490   3.8900 Si 1 RES   0.0000
7083 O  82.2320  35.0730   4.3770 O 1 RES   0.0000
7084 Si  82.2320  33.6980   4.8630 Si 1 RES   0.0000
7085 O  83.4230  33.0100   4.3770 O 1 RES   0.0000
7086 O  81.0410  33.0100   4.3770 O 1 RES   0.0000
7087 Si  82.2320  33.6980   7.7810 Si 1 RES   0.0000
7088 O  83.4230  33.0100   8.2670 O 1 RES   0.0000
7089 O  81.0410  33.0100   8.2670 O 1 RES   0.0000
7090 O  82.2320  35.0730   8.2670 O 1 RES   0.0000
7091 Si  82.2320  36.4490   8.7530 Si 1 RES   0.0000
7092 O  82.2320  36.4490  10.2120 O 1 RES   0.0000
7093 O  79.8500  37.8240   6.3220 O 1 RES   0.0000
7094 Si  79.8500  37.8240   0.0000 Si 1 RES   0.0000
7095 O  79.8500  39.1990   0.4860 O 1 RES   0.0000
7096 Si  79.8500  -0.7250   0.9730 Si 1 RES   0.0000
7097 O  81.0410  37.1360   0.4860 O 1 RES   0.0000
7098 O  78.6590  37.1360   0.4860 O 1 RES   0.0000
7099 O  79.8500  -0.7250   2.4310 O 1 RES   0.0000
7100 Si  79.8500  -0.7250   3.8900 Si 1 RES   0.0000
7101 O  79.8500  39.1990   4.3770 O 1 RES   0.0000
7102 Si  79.8500  37.8240   4.8630 Si 1 RES   0.0000
7103 O  81.0410  37.1360   4.3770 O 1 RES   0.0000
7104 O  78.6590  37.1360   4.3770 O 1 RES   0.0000
7105 Si  79.8500  37.8240   7.7810 Si 1 RES   0.0000
7106 O  81.0410  37.1360   8.2670 O 1 RES   0.0000
7107 O  78.6590  37.1360   8.2670 O 1 RES   0.0000
7108 O  79.8500  39.1990   8.2670 O 1 RES   0.0000
7109 Si  79.8500  -0.7250   8.7530 Si 1 RES   0.0000
7110 O  79.8500  -0.7250  10.2120 O 1 RES   0.0000
7111 O  84.6140  37.8240   6.3220 O 1 RES   0.0000
7112 Si  84.6140  37.8240   0.0000 Si 1 RES   0.0000
7113 O  84.6140  39.1990   0.4860 O 1 RES   0.0000
7114 Si  84.6140  -0.7250   0.9730 Si 1 RES   0.0000
7115 O  85.8060  37.1360   0.4860 O 1 RES   0.0000
7116 O  83.4230  37.1360   0.4860 O 1 RES   0.0000
7117 O  84.6140  -0.7250   2.4310 O 1 RES   0.0000
7118 Si  84.6140  -0.7250   3.8900 Si 1 RES   0.0000
7119 O  84.6140  39.1990   4.3770 O 1 RES   0.0000
7120 Si  84.6140  37.8240   4.8630 Si 1 RES   0.0000
7121 O  85.8060  37.1360   4.3770 O 1 RES   0.0000
7122 O  83.4230  37.1360   4.3770 O 1 RES   0.0000
7123 Si  84.6140  37.8240   7.7810 Si 1 RES   0.0000
7124 O  85.8060  37.1360   8.2670 O 1 RES   0.0000
7125 O  83.4230  37.1360   8.2670 O 1 RES   0.0000
7126 O  84.6140  39.1990   8.2670 O 1 RES   0.0000
7127 Si  84.6140  -0.7250   8.7530 Si 1 RES   0.0000
7128 O  84.6140  -0.7250  10.2120 O 1 RES   0.0000
7129 O  86.9970  33.6980   6.3220 O 1 RES   0.0000
7130 Si  86.9970  33.6980   0.0000 Si 1 RES   0.0000
7131 O  86.9970  35.0730   0.4860 O 1 RES   0.0000
7132 Si  86.9970  36.4490   0.9730 Si 1 RES   0.0000
7133 O  88.1880  33.0100   0.4860 O 1 RES   0.0000
7134 O  85.8060  33.0100   0.4860 O 1 RES   0.0000
7135 O  86.9970  36.4490   2.4310 O 1 RES   0.0000
7136 Si  86.9970  36.4490   3.8900 Si 1 RES   0.0000
7137 O  86.9970  35.0730   4.3770 O 1 RES   0.0000
7138 Si  86.9970  33.6980   4.8630 Si 1 RES   0.0000
7139 O  88.1880  33.0100   4.3770 O 1 RES   0.0000
7140 O  85.8060  33.0100   4.3770 O 1 RES   0.0000
7141 Si  86.9970  33.6980   7.7810 Si 1 RES   0.0000
7142 O  88.1880  33.0100   8.2670 O 1 RES   0.0000
7143 O  85.8060  33.0100   8.2670 O 1 RES   0.0000
7144 O  86.9970  35.0730   8.2670 O 1 RES   0.0000
7145 Si  86.9970  36.4490   8.7530 Si 1 RES   0.0000
7146 O  86.9970  36.4490  10.2120 O 1 RES   0.0000
7147 O  91.7610  33.6980   6.3220 O 1 RES   0.0000
7148 Si  91.7610  33.6980   0.0000 Si 1 RES   0.0000
7149 O  91.7610  35.0730   0.4860 O 1 RES   0.0000
7150 Si  91.7610  36.4490   0.9730 Si 1 RES   0.0000
7151 O  92.9530  33.0100   0.4860 O 1 RES   0.0000
7152 O  90.5700  33.0100   0.4860 O 1 RES   0.0000
7153 O  91.7610  36.4490   2.4310 O 1 RES   0.0000
7154 Si  91.7610  36.4490   3.8900 Si 1 RES   0.0000
7155 O  91.7610  35.0730   4.3770 O 1 RES   0.0000
7156 Si  91.7610  33.6980   4.8630 Si 1 RES   0.0000
7157 O  92.9530  33.0100   4.3770 O 1 RES   0.0000
7158 O  90.5700  33.0100   4.3770 O 1 RES   0.0000
7159 Si  91.7610  33.6980   7.7810 Si 1 RES   0.0000
7160 O  92.9530  33.0100   8.2670 O 1 RES   0.0000
7161 O  90.5700  33.0100   8.2670 O 1 RES   0.0000
7162 O  91.7610  35.0730   8.2670 O 1 RES   0.0000
7163 Si  91.7610  36.4490   8.7530 Si 1 RES   0.0000
7164 O  91.7610  36.4490  10.2120 O 1 RES   0.0000
7165 O  89.3790  37.8240   6.3220 O 1 RES   0.0000
7166 Si  89.3790  37.8240   0.0000 Si 1 RES   0.0000
7167 O  89.3790  39.1990   0.4860 O 1 RES   0.0000
7168 Si  89.3790  -0.7250   0.9730 Si 1 RES   0.0000
7169 O  90.5700  37.1360   0.4860 O 1 RES   0.0000
7170 O  88.1880  37.1360   0.4860 O 1 RES   0.0000
7171 O  89.3790  -0.7250   2.4310 O 1 RES   0.0000
7172 Si  89.3790  -0.7250   3.8900 Si 1 RES   0.0000
7173 O  89.3790  39.1990   4.3770 O 1 RES   0.0000
7174 Si  89.3790  37.8240   4.8630 Si 1 RES   0.0000
7175 O  90.5700  37.1360   4.3770 O 1 RES   0.0000
7176 O  88.1880  37.1360   4.3770 O 1 RES   0.0000
7177 Si  89.3790  37.8240   7.7810 Si 1 RES   0.0000
7178 O  90.5700  37.1360   8.2670 O 1 RES   0.0000
7179 O  88.1880  37.1360   8.2670 O 1 RES   0.0000
7180 O  89.3790  39.1990   8.2670 O 1 RES   0.0000
7181 Si  89.3790  -0.7250   8.7530 Si 1 RES   0.0000
7182 O  89.3790  -0.7250  10.2120 O 1 RES   0.0000
7183 O  94.1440  37.8240   6.3220 O 1 RES   0.0000
7184 Si  94.1440  37.8240   0.0000 Si 1 RES   0.0000
7185 O  94.1440  39.1990   0.4860 O 1 RES   0.0000
7186 Si  94.1440  -0.7250   0.9730 Si 1 RES   0.0000
7187 O  47.6460  37.1360   0.4860 O 1 RES   0.0000
7188 O  92.9530  37.1360   0.4860 O 1 RES   0.0000
7189 O  94.1440  -0.7250   2.4310 O 1 RES   0.0000
7190 Si  94.1440  -0.7250   3.8900 Si 1 RES   0.0000
7191 O  94.1440  39.1990   4.3770 O 1 RES   0.0000
7192 Si  94.1440  37.8240   4.8630 Si 1 RES   0.0000
7193 O  47.6460  37.1360   4.3770 O 1 RES   0.0000
7194 O  92.9530  37.1360   4.3770 O 1 RES   0.0000
7195 Si  94.1440  37.8240   7.7810 Si 1 RES   0.0000
7196 O  47.6460  37.1360   8.2670 O 1 RES   0.0000
7197 O  92.9530  37.1360   8.2670 O 1 RES   0.0000
7198 O  94.1440  39.1990   8.2670 O 1 RES   0.0000
7199 Si  94.1440  -0.7250   8.7530 Si 1 RES   0.0000
7200 O  94.1440  -0.7250  10.2120 O 1 RES   0.0000
7201 O  48.8800  41.9880   6.3220 O 1 RES   0.0000
7202 Si  48.8800  41.9880   0.0000 Si 1 RES   0.0000
7203 O  48.8800  43.3630   0.4860 O 1 RES   0.0000
7204 Si  48.8800  44.7390   0.9730 Si 1 RES   0.0000
7205 O  50.0710  41.3000   0.4860 O 1 RES   0.0000
7206 O  47.6890  41.3000   0.4860 O 1 RES   0.0000
7207 O  48.8800  44.7390   2.4310 O 1 RES   0.0000
7208 Si  48.8800  44.7390   3.8900 Si 1 RES   0.0000
7209 O  48.8800  43.3630   4.3770 O 1 RES   0.0000
7210 Si  48.8800  41.9880   4.8630 Si 1 RES   0.0000
7211 O  50.0710  41.3000   4.3770 O 1 RES   0.0000
7212 O  47.6890  41.3000   4.3770 O 1 RES   0.0000
7213 Si  48.8800  41.9880   7.7810 Si 1 RES   0.0000
7214 O  50.0710  41.3000   8.2670 O 1 RES   0.0000
7215 O  47.6890  41.3000   8.2670 O 1 RES   0.0000
7216 O  48.8800  43.3630   8.2670 O 1 RES   0.0000
7217 Si  48.8800  44.7390   8.7530 Si 1 RES   0.0000
7218 O  48.8800  44.7390  10.2120 O 1 RES   0.0000
7219 O  53.6450  41.9880   6.3220 O 1 RES   0.0000
7220 Si  53.6450  41.9880   0.0000 Si 1 RES   0.0000
7221 O  53.6450  43.3630   0.4860 O 1 RES   0.0000
7222 Si  53.6450  44.7390   0.9730 Si 1 RES   0.0000
7223 O  54.8360  41.3000   0.4860 O 1 RES   0.0000
7224 O  52.4540  41.3000   0.4860 O 1 RES   0.0000
7225 O  53.6450  44.7390   2.4310 O 1 RES   0.0000
7226 Si  53.6450  44.7390   3.8900 Si 1 RES   0.0000
7227 O  53.6450  43.3630   4.3770 O 1 RES   0.0000
7228 Si  53.6450  41.9880   4.8630 Si 1 RES   0.0000
7229 O  54.8360  41.3000   4.3770 O 1 RES   0.0000
7230 O  52.4540  41.3000   4.3770 O 1 RES   0.0000
7231 Si  53.6450  41.9880   7.7810 Si 1 RES   0.0000
7232 O  54.8360  41.3000   8.2670 O 1 RES   0.0000
7233 O  52.4540  41.3000   8.2670 O 1 RES   0.0000
7234 O  53.6450  43.3630   8.2670 O 1 RES   0.0000
7235 Si  53.6450  44.7390   8.7530 Si 1 RES   0.0000
7236 O  53.6450  44.7390  10.2120 O 1 RES   0.0000
7237 O  51.2620  46.1140   6.3220 O 1 RES   0.0000
7238 Si  51.2620  46.1140   0.0000 Si 1 RES   0.0000
7239 O  51.2620  47.4890   0.4860 O 1 RES   0.0000
7240 Si  51.2620  48.8650   0.9730 Si 1 RES   0.0000
7241 O  52.4540  45.4260   0.4860 O 1 RES   0.0000
7242 O  50.0710  45.4260   0.4860 O 1 RES   0.0000
7243 O  51.2620  48.8650   2.4310 O 1 RES   0.0000
7244 Si  51.2620  48.8650   3.8900 Si 1 RES   0.0000
7245 O  51.2620  47.4890   4.3770 O 1 RES   0.0000
7246 Si  51.2620  46.1140   4.8630 Si 1 RES   0.0000
7247 O  52.4540  45.4260   4.3770 O 1 RES   0.0000
7248 O  50.0710  45.4260   4.3770 O 1 RES   0.0000
7249 Si  51.2620  46.1140   7.7810 Si 1 RES   0.0000
7250 O  52.4540  45.4260   8.2670 O 1 RES   0.0000
7251 O  50.0710  45.4260   8.2670 O 1 RES   0.0000
7252 O  51.2620  47.4890   8.2670 O 1 RES   0.0000
7253 Si  51.2620  48.8650   8.7530 Si 1 RES   0.0000
7254 O  51.2620  48.8650  10.2120 O 1 RES   0.0000
7255 O  56.0270  46.1140   6.3220 O 1 RES   0.0000
7256 Si  56.0270  46.1140   0.0000 Si 1 RES   0.0000
7257 O  56.0270  47.4890   0.4860 O 1 RES   0.0000
7258 Si  56.0270  48.8650   0.9730 Si 1 RES   0.0000
7259 O  57.2180  45.4260   0.4860 O 1 RES   0.0000
7260 O  54.8360  45.4260   0.4860 O 1 RES   0.0000
7261 O  56.0270  48.8650   2.4310 O 1 RES   0.0000
7262 Si  56.0270  48.8650   3.8900 Si 1 RES   0.0000
7263 O  56.0270  47.4890   4.3770 O 1 RES   0.0000
7264 Si  56.0270  46.1140   4.8630 Si 1 RES   0.0000
7265 O  57.2180  45.4260   4.3770 O 1 RES   0.0000
7266 O  54.8360  45.4260   4.3770 O 1 RES   0.0000
7267 Si  56.0270  46.1140   7.7810 Si 1 RES   0.0000
7268 O  57.2180  45.4260   8.2670 O 1 RES   0.0000
7269 O  54.8360  45.4260   8.2670 O 1 RES   0.0000
7270 O  56.0270  47.4890   8.2670 O 1 RES   0.0000
7271 Si  56.0270  48.8650   8.7530 Si 1 RES   0.0000
7272 O  56.0270  48.8650  10.2120 O 1 RES   0.0000
7273 O  58.4090  41.9880   6.3220 O 1 RES   0.0000
7274 Si  58.4090  41.9880   0.0000 Si 1 RES   0.0000
7275 O  58.4090  43.3630   0.4860 O 1 RES   0.0000
7276 Si  58.4090  44.7390   0.9730 Si 1 RES   0.0000
7277 O  59.6010  41.3000   0.4860 O 1 RES   0.0000
7278 O  57.2180  41.3000   0.4860 O 1 RES   0.0000
7279 O  58.4090  44.7390   2.4310 O 1 RES   0.0000
7280 Si  58.4090  44.7390   3.8900 Si 1 RES   0.0000
7281 O  58.4090  43.3630   4.3770 O 1 RES   0.0000
7282 Si  58.4090  41.9880   4.8630 Si 1 RES   0.0000
7283 O  59.6010  41.3000   4.3770 O 1 RES   0.0000
7284 O  57.2180  41.3000   4.3770 O 1 RES   0.0000
7285 Si  58.4090  41.9880   7.7810 Si 1 RES   0.0000
7286 O  59.6010  41.3000   8.2670 O 1 RES   0.0000
7287 O  57.2180  41.3000   8.2670 O 1 RES   0.0000
7288 O  58.4090  43.3630   8.2670 O 1 RES   0.0000
7289 Si  58.4090  44.7390   8.7530 Si 1 RES   0.0000
7290 O  58.4090  44.7390  10.2120 O 1 RES   0.0000
7291 O  63.1740  41.9880   6.3220 O 1 RES   0.0000
7292 Si  63.1740  41.9880   0.0000 Si 1 RES   0.0000
7293 O  63.1740  43.3630   0.4860 O 1 RES   0.0000
7294 Si  63.1740  44.7390   0.9730 Si 1 RES   0.0000
7295 O  64.3650  41.3000   0.4860 O 1 RES   0.0000
7296 O  61.9830  41.3000   0.4860 O 1 RES   0.0000
7297 O  63.1740  44.7390   2.4310 O 1 RES   0.0000
7298 Si  63.1740  44.7390   3.8900 Si 1 RES   0.0000
7299 O  63.1740  43.3630   4.3770 O 1 RES   0.0000
7300 Si  63.1740  41.9880   4.8630 Si 1 RES   0.0000
7301 O  64.3650  41.3000   4.3770 O 1 RES   0.0000
7302 O  61.9830  41.3000   4.3770 O 1 RES   0.0000
7303 Si  63.1740  41.9880   7.7810 Si 1 RES   0.0000
7304 O  64.3650  41.3000   8.2670 O 1 RES   0.0000
7305 O  61.9830  41.3000   8.2670 O 1 RES   0.0000
7306 O  63.1740  43.3630   8.2670 O 1 RES   0.0000
7307 Si  63.1740  44.7390   8.7530 Si 1 RES   0.0000
7308 O  63.1740  44.7390  10.2120 O 1 RES   0.0000
7309 O  60.7920  46.1140   6.3220 O 1 RES   0.0000
7310 Si  60.7920  46.1140   0.0000 Si 1 RES   0.0000
7311 O  60.7920  47.4890   0.4860 O 1 RES   0.0000
7312 Si  60.7920  48.8650   0.9730 Si 1 RES   0.0000
7313 O  61.9830  45.4260   0.4860 O 1 RES   0.0000
7314 O  59.6010  45.4260   0.4860 O 1 RES   0.0000
7315 O  60.7920  48.8650   2.4310 O 1 RES   0.0000
7316 Si  60.7920  48.8650   3.8900 Si 1 RES   0.0000
7317 O  60.7920  47.4890   4.3770 O 1 RES   0.0000
7318 Si  60.7920  46.1140   4.8630 Si 1 RES   0.0000
7319 O  61.9830  45.4260   4.3770 O 1 RES   0.0000
7320 O  59.6010  45.4260   4.3770 O 1 RES   0.0000
7321 Si  60.7920  46.1140   7.7810 Si 1 RES   0.0000
7322 O  61.9830  45.4260   8.2670 O 1 RES   0.0000
7323 O  59.6010  45.4260   8.2670 O 1 RES   0.0000
7324 O  60.7920  47.4890   8.2670 O 1 RES   0.0000
7325 Si  60.7920  48.8650   8.7530 Si 1 RES   0.0000
7326 O  60.7920  48.8650  10.2120 O 1 RES   0.0000
7327 O  65.5560  46.1140   6.3220 O 1 RES   0.0000
7328 Si  65.5560  46.1140   0.0000 Si 1 RES   0.0000
7329 O  65.5560  47.4890   0.4860 O 1 RES   0.0000
7330 Si  65.5560  48.8650   0.9730 Si 1 RES   0.0000
7331 O  66.7470  45.4260   0.4860 O 1 RES   0.0000
7332 O  64.3650  45.4260   0.4860 O 1 RES   0.0000
7333 O  65.5560  48.8650   2.4310 O 1 RES   0.0000
7334 Si  65.5560  48.8650   3.8900 Si 1 RES   0.0000
7335 O  65.5560  47.4890   4.3770 O 1 RES   0.0000
7336 Si  65.5560  46.1140   4.8630 Si 1 RES   0.0000
7337 O  66.7470  45.4260   4.3770 O 1 RES   0.0000
7338 O  64.3650  45.4260   4.3770 O 1 RES   0.0000
7339 Si  65.5560  46.1140   7.7810 Si 1 RES   0.0000
7340 O  66.7470  45.4260   8.2670 O 1 RES   0.0000
7341 O  64.3650  45.4260   8.2670 O 1 RES   0.0000
7342 O  65.5560  47.4890   8.2670 O 1 RES   0.0000
7343 Si  65.5560  48.8650   8.7530 Si 1 RES   0.0000
7344 O  65.5560  48.8650  10.2120 O 1 RES   0.0000
7345 O  67.9390  41.9880   6.3220 O 1 RES   0.0000
7346 Si  67.9390  41.9880   0.0000 Si 1 RES   0.0000
7347 O  67.9390  43.3630   0.4860 O 1 RES   0.0000
7348 Si  67.9390  44.7390   0.9730 Si 1 RES   0.0000
7349 O  69.1300  41.3000   0.4860 O 1 RES   0.0000
7350 O  66.7470  41.3000   0.4860 O 1 RES   0.0000
7351 O  67.9390  44.7390   2.4310 O 1 RES   0.0000
7352 Si  67.9390  44.7390   3.8900 Si 1 RES   0.0000
7353 O  67.9390  43.3630   4.3770 O 1 RES   0.0000
7354 Si  67.9390  41.9880   4.8630 Si 1 RES   0.0000
7355 O  69.1300  41.3000   4.3770 O 1 RES   0.0000
7356 O  66.7470  41.3000   4.3770 O 1 RES   0.0000
7357 Si  67.9390  41.9880   7.7810 Si 1 RES   0.0000
7358 O  69.1300  41.3000   8.2670 O 1 RES   0.0000
7359 O  66.7470  41.3000   8.2670 O 1 RES   0.0000
7360 O  67.9390  43.3630   8.2670 O 1 RES   0.0000
7361 Si  67.9390  44.7390   8.7530 Si 1 RES   0.0000
7362 O  67.9390  44.7390  10.2120 O 1 RES   0.0000
7363 O  72.7030  41.9880   6.3220 O 1 RES   0.0000
7364 Si  72.7030  41.9880   0.0000 Si 1 RES   0.0000
7365 O  72.7030  43.3630   0.4860 O 1 RES   0.0000
7366 Si  72.7030  44.7390   0.9730 Si 1 RES   0.0000
7367 O  73.8940  41.3000   0.4860 O 1 RES   0.0000
7368 O  71.5120  41.3000   0.4860 O 1 RES   0.0000
7369 O  72.7030  44.7390   2.4310 O 1 RES   0.0000
7370 Si  72.7030  44.7390   3.8900 Si 1 RES   0.0000
7371 O  72.7030  43.3630   4.3770 O 1 RES   0.0000
7372 Si  72.7030  41.9880   4.8630 Si 1 RES   0.0000
7373 O  73.8940  41.3000   4.3770 O 1 RES   0.0000
7374 O  71.5120  41.3000   4.3770 O 1 RES   0.0000
7375 Si  72.7030  41.9880   7.7810 Si 1 RES   0.0000
7376 O  73.8940  41.3000   8.2670 O 1 RES   0.0000
7377 O  71.5120  41.3000   8.2670 O 1 RES   0.0000
7378 O  72.7030  43.3630   8.2670 O 1 RES   0.0000
7379 Si  72.7030  44.7390   8.7530 Si 1 RES   0.0000
7380 O  72.7030  44.7390  10.2120 O 1 RES   0.0000
7381 O  70.3210  46.1140   6.3220 O 1 RES   0.0000
7382 Si  70.3210  46.1140   0.0000 Si 1 RES   0.0000
7383 O  70.3210  47.4890   0.4860 O 1 RES   0.0000
7384 Si  70.3210  48.8650   0.9730 Si 1 RES   0.0000
7385 O  71.5120  45.4260   0.4860 O 1 RES   0.0000
7386 O  69.1300  45.4260   0.4860 O 1 RES   0.0000
7387 O  70.3210  48.8650   2.4310 O 1 RES   0.0000
7388 Si  70.3210  48.8650   3.8900 Si 1 RES   0.0000
7389 O  70.3210  47.4890   4.3770 O 1 RES   0.0000
7390 Si  70.3210  46.1140   4.8630 Si 1 RES   0.0000
7391 O  71.5120  45.4260   4.3770 O 1 RES   0.0000
7392 O  69.1300  45.4260   4.3770 O 1 RES   0.0000
7393 Si  70.3210  46.1140   7.7810 Si 1 RES   0.0000
7394 O  71.5120  45.4260   8.2670 O 1 RES   0.0000
7395 O  69.1300  45.4260   8.2670 O 1 RES   0.0000
7396 O  70.3210  47.4890   8.2670 O 1 RES   0.0000
7397 Si  70.3210  48.8650   8.7530 Si 1 RES   0.0000
7398 O  70.3210  48.8650  10.2120 O 1 RES   0.0000
7399 O  75.0850  46.1140   6.3220 O 1 RES   0.0000
7400 Si  75.0850  46.1140   0.0000 Si 1 RES   0.0000
7401 O  75.0850  47.4890   0.4860 O 1 RES   0.0000
7402 Si  75.0850  48.8650   0.9730 Si 1 RES   0.0000
7403 O  76.2760  45.4260   0.4860 O 1 RES   0.0000
7404 O  73.8940  45.4260   0.4860 O 1 RES   0.0000
7405 O  75.0850  48.8650   2.4310 O 1 RES   0.0000
7406 Si  75.0850  48.8650   3.8900 Si 1 RES   0.0000
7407 O  75.0850  47.4890   4.3770 O 1 RES   0.0000
7408 Si  75.0850  46.1140   4.8630 Si 1 RES   0.0000
7409 O  76.2760  45.4260   4.3770 O 1 RES   0.0000
7410 O  73.8940  45.4260   4.3770 O 1 RES   0.0000
7411 Si  75.0850  46.1140   7.7810 Si 1 RES   0.0000
7412 O  76.2760  45.4260   8.2670 O 1 RES   0.0000
7413 O  73.8940  45.4260   8.2670 O 1 RES   0.0000
7414 O  75.0850  47.4890   8.2670 O 1 RES   0.0000
7415 Si  75.0850  48.8650   8.7530 Si 1 RES   0.0000
7416 O  75.0850  48.8650  10.2120 O 1 RES   0.0000
7417 O  77.4680  41.9880   6.3220 O 1 RES   0.0000
7418 Si  77.4680  41.9880   0.0000 Si 1 RES   0.0000
7419 O  77.4680  43.3630   0.4860 O 1 RES   0.0000
7420 Si  77.4680  44.7390   0.9730 Si 1 RES   0.0000
7421 O  78.6590  41.3000   0.4860 O 1 RES   0.0000
7422 O  76.2760  41.3000   0.4860 O 1 RES   0.0000
7423 O  77.4680  44.7390   2.4310 O 1 RES   0.0000
7424 Si  77.4680  44.7390   3.8900 Si 1 RES   0.0000
7425 O  77.4680  43.3630   4.3770 O 1 RES   0.0000
7426 Si  77.4680  41.9880   4.8630 Si 1 RES   0.0000
7427 O  78.6590  41.3000   4.3770 O 1 RES   0.0000
7428 O  76.2760  41.3000   4.3770 O 1 RES   0.0000
7429 Si  77.4680  41.9880   7.7810 Si 1 RES   0.0000
7430 O  78.6590  41.3000   8.2670 O 1 RES   0.0000
7431 O  76.2760  41.3000   8.2670 O 1 RES   0.0000
7432 O  77.4680  43.3630   8.2670 O 1 RES   0.0000
7433 Si  77.4680  44.7390   8.7530 Si 1 RES   0.0000
7434 O  77.4680  44.7390  10.2120 O 1 RES   0.0000
7435 O  82.2320  41.9880   6.3220 O 1 RES   0.0000
7436 Si  82.2320  41.9880   0.0000 Si 1 RES   0.0000
7437 O  82.2320  43.3630   0.4860 O 1 RES   0.0000
7438 Si  82.2320  44.7390   0.9730 Si 1 RES   0.0000
7439 O  83.4230  41.3000   0.4860 O 1 RES   0.0000
7440 O  81.0410  41.3000   0.4860 O 1 RES   0.0000
7441 O  82.2320  44.7390   2.4310 O 1 RES   0.0000
7442 Si  82.2320  44.7390   3.8900 Si 1 RES   0.0000
7443 O  82.2320  43.3630   4.3770 O 1 RES   0.0000
7444 Si  82.2320  41.9880   4.8630 Si 1 RES   0.0000
7445 O  83.4230  41.3000   4.3770 O 1 RES   0.0000
7446 O  81.0410  41.3000   4.3770 O 1 RES   0.0000
7447 Si  82.2320  41.9880   7.7810 Si 1 RES   0.0000
7448 O  83.4230  41.3000   8.2670 O 1 RES   0.0000
7449 O  81.0410  41.3000   8.2670 O 1 RES   0.0000
7450 O  82.2320  43.3630   8.2670 O 1 RES   0.0000
7451 Si  82.2320  44.7390   8.7530 Si 1 RES   0.0000
7452 O  82.2320  44.7390  10.2120 O 1 RES   0.0000
7453 O  79.8500  46.1140   6.3220 O 1 RES   0.0000
7454 Si  79.8500  46.1140   0.0000 Si 1 RES   0.0000
7455 O  79.8500  47.4890   0.4860 O 1 RES   0.0000
7456 Si  79.8500  48.8650   0.9730 Si 1 RES   0.0000
7457 O  81.0410  45.4260   0.4860 O 1 RES   0.0000
7458 O  78.6590  45.4260   0.4860 O 1 RES   0.0000
7459 O  79.8500  48.8650   2.4310 O 1 RES   0.0000
7460 Si  79.8500  48.8650   3.8900 Si 1 RES   0.0000
7461 O  79.8500  47.4890   4.3770 O 1 RES   0.0000
7462 Si  79.8500  46.1140   4.8630 Si 1 RES   0.0000
7463 O  81.0410  45.4260   4.3770 O 1 RES   0.0000
7464 O  78.6590  45.4260   4.3770 O 1 RES   0.0000
7465 Si  79.8500  46.1140   7.7810 Si 1 RES   0.0000
7466 O  81.0410  45.4260   8.2670 O 1 RES   0.0000
7467 O  78.6590  45.4260   8.2670 O 1 RES   0.0000
7468 O  79.8500  47.4890   8.2670 O 1 RES   0.0000
7469 Si  79.8500  48.8650   8.7530 Si 1 RES   0.0000
7470 O  79.8500  48.8650  10.2120 O 1 RES   0.0000
7471 O  84.6140  46.1140   6.3220 O 1 RES   0.0000
7472 Si  84.6140  46.1140   0.0000 Si 1 RES   0.0000
7473 O  84.6140  47.4890   0.4860 O 1 RES   0.0000
7474 Si  84.6140  48.8650   0.9730 Si 1 RES   0.0000
7475 O  85.8060  45.4260   0.4860 O 1 RES   0.0000
7476 O  83.4230  45.4260   0.4860 O 1 RES   0.0000
7477 O  84.6140  48.8650   2.4310 O 1 RES   0.0000
7478 Si  84.6140  48.8650   3.8900 Si 1 RES   0.0000
7479 O  84.6140  47.4890   4.3770 O 1 RES   0.0000
7480 Si  84.6140  46.1140   4.8630 Si 1 RES   0.0000
7481 O  85.8060  45.4260   4.3770 O 1 RES   0.0000
7482 O  83.4230  45.4260   4.3770 O 1 RES   0.0000
7483 Si  84.6140  46.1140   7.7810 Si 1 RES   0.0000
7484 O  85.8060  45.4260   8.2670 O 1 RES   0.0000
7485 O  83.4230  45.4260   8.2670 O 1 RES   0.0000
7486 O  84.6140  47.4890   8.2670 O 1 RES   0.0000
7487 Si  84.6140  48.8650   8.7530 Si 1 RES   0.0000
7488 O  84.6140  48.8650  10.2120 O 1 RES   0.0000
7489 O  86.9970  41.9880   6.3220 O 1 RES   0.0000
7490 Si  86.9970  41.9880   0.0000 Si 1 RES   0.0000
7491 O  86.9970  43.3630   0.4860 O 1 RES   0.0000
7492 Si  86.9970  44.7390   0.9730 Si 1 RES   0.0000
7493 O  88.1880  41.3000   0.4860 O 1 RES   0.0000
7494 O  85.8060  41.3000   0.4860 O 1 RES   0.0000
7495 O  86.9970  44.7390   2.4310 O 1 RES   0.0000
7496 Si  86.9970  44.7390   3.8900 Si 1 RES   0.0000
7497 O  86.9970  43.3630   4.3770 O 1 RES   0.0000
7498 Si  86.9970  41.9880   4.8630 Si 1 RES   0.0000
7499 O  88.1880  41.3000   4.3770 O 1 RES   0.0000
7500 O  85.8060  41.3000   4.3770 O 1 RES   0.0000
7501 Si  86.9970  41.9880   7.7810 Si 1 RES   0.0000
7502 O  88.1880  41.3000   8.2670 O 1 RES   0.0000
7503 O  85.8060  41.3000   8.2670 O 1 RES   0.0000
7504 O  86.9970  43.3630   8.2670 O 1 RES   0.0000
7505 Si  86.9970  44.7390   8.7530 Si 1 RES   0.0000
7506 O  86.9970  44.7390  10.2120 O 1 RES   0.0000
7507 O  91.7610  41.9880   6.3220 O 1 RES   0.0000
7508 Si  91.7610  41.9880   0.0000 Si 1 RES   0.0000
7509 O  91.7610  43.3630   0.4860 O 1 RES   0.0000
7510 Si  91.7610  44.7390   0.9730 Si 1 RES   0.0000
7511 O  92.9530  41.3000   0.4860 O 1 RES   0.0000
7512 O  90.5700  41.3000   0.4860 O 1 RES   0.0000
7513 O  91.7610  44.7390   2.4310 O 1 RES   0.0000
7514 Si  91.7610  44.7390   3.8900 Si 1 RES   0.0000
7515 O  91.7610  43.3630   4.3770 O 1 RES   0.0000
7516 Si  91.7610  41.9880   4.8630 Si 1 RES   0.0000
7517 O  92.9530  41.3000   4.3770 O 1 RES   0.0000
7518 O  90.5700  41.3000   4.3770 O 1 RES   0.0000
7519 Si  91.7610  41.9880   7.7810 Si 1 RES   0.0000
7520 O  92.9530  41.3000   8.2670 O 1 RES   0.0000
7521 O  90.5700  41.3000   8.2670 O 1 RES   0.0000
7522 O  91.7610  43.3630   8.2670 O 1 RES   0.0000
7523 Si  91.7610  44.7390   8.7530 Si 1 RES   0.0000
7524 O  91.7610  44.7390  10.2120 O 1 RES   0.0000
7525 O  89.3790  46.1140   6.3220 O 1 RES   0.0000
7526 Si  89.3790  46.1140   0.0000 Si 1 RES   0.0000
7527 O  89.3790  47.4890   0.4860 O 1 RES   0.0000
7528 Si  89.3790  48.8650   0.9730 Si 1 RES   0.0000
7529 O  90.5700  45.4260   0.4860 O 1 RES   0.0000
7530 O  88.1880  45.4260   0.4860 O 1 RES   0.0000
7531 O  89.3790  48.8650   2.4310 O 1 RES   0.0000
7532 Si  89.3790  48.8650   3.8900 Si 1 RES   0.0000
7533 O  89.3790  47.4890   4.3770 O 1 RES   0.0000
7534 Si  89.3790  46.1140   4.8630 Si 1 RES   0.0000
7535 O  90.5700  45.4260   4.3770 O 1 RES   0.0000
7536 O  88.1880  45.4260   4.3770 O 1 RES   0.0000
7537 Si  89.3790  46.1140   7.7810 Si 1 RES   0.0000
7538 O  90.5700  45.4260   8.2670 O 1 RES   0.0000
7539 O  88.1880  45.4260   8.2670 O 1 RES   0.0000
7540 O  89.3790  47.4890   8.2670 O 1 RES   0.0000
7541 Si  89.3790  48.8650   8.7530 Si 1 RES   0.0000
7542 O  89.3790  48.8650  10.2120 O 1 RES   0.0000
7543 O  94.1440  46.1140   6.3220 O 1 RES   0.0000
7544 Si  94.1440  46.1140   0.0000 Si 1 RES   0.0000
7545 O  94.1440  47.4890   0.4860 O 1 RES   0.0000
7546 Si  94.1440  48.8650   0.9730 Si 1 RES   0.0000
7547 O  47.6460  45.4260   0.4860 O 1 RES   0.0000
7548 O  92.9530  45.4260   0.4860 O 1 RES   0.0000
7549 O  94.1440  48.8650   2.4310 O 1 RES   0.0000
7550 Si  94.1440  48.8650   3.8900 Si 1 RES   0.0000
7551 O  94.1440  47.4890   4.3770 O 1 RES   0.0000
7552 Si  94.1440  46.1140   4.8630 Si 1 RES   0.0000
7553 O  47.6460  45.4260   4.3770 O 1 RES   0.0000
7554 O  92.9530  45.4260   4.3770 O 1 RES   0.0000
7555 Si  94.1440  46.1140   7.7810 Si 1 RES   0.0000
7556 O  47.6460  45.4260   8.2670 O 1 RES   0.0000
7557 O  92.9530  45.4260   8.2670 O 1 RES   0.0000
7558 O  94.1440  47.4890   8.2670 O 1 RES   0.0000
7559 Si  94.1440  48.8650   8.7530 Si 1 RES   0.0000
7560 O  94.1440  48.8650  10.2120 O 1 RES   0.0000
7561 O  48.8800  50.2400   6.3220 O 1 RES   0.0000
7562 Si  48.8800  50.2400   0.0000 Si 1 RES   0.0000
7563 O  48.8800  51.6160   0.4860 O 1 RES   0.0000
7564 Si  48.8800  52.9910   0.9730 Si 1 RES   0.0000
7565 O  50.0710  49.5530   0.4860 O 1 RES   0.0000
7566 O  47.6890  49.5530   0.4860 O 1 RES   0.0000
7567 O  48.8800  52.9910   2.4310 O 1 RES   0.0000
7568 Si  48.8800  52.9910   3.8900 Si 1 RES   0.0000
7569 O  48.8800  51.6160   4.3770 O 1 RES   0.0000
7570 Si  48.8800  50.2400   4.8630 Si 1 RES   0.0000
7571 O  50.0710  49.5530   4.3770 O 1 RES   0.0000
7572 O  47.6890  49.5530   4.3770 O 1 RES   0.0000
7573 Si  48.8800  50.2400   7.7810 Si 1 RES   0.0000
7574 O  50.0710  49.5530   8.2670 O 1 RES   0.0000
7575 O  47.6890  49.5530   8.2670 O 1 RES   0.0000
7576 O  48.8800  51.6160   8.2670 O 1 RES   0.0000
7577 Si  48.8800  52.9910   8.7530 Si 1 RES   0.0000
7578 O  48.8800  52.9910  10.2120 O 1 RES   0.0000
7579 O  53.6450  50.2400   6.3220 O 1 RES   0.0000
7580 Si  53.6450  50.2400   0.0000 Si 1 RES   0.0000
7581 O  53.6450  51.6160   0.4860 O 1 RES   0.0000
7582 Si  53.6450  52.9910   0.9730 Si 1 RES   0.0000
7583 O  54.8360  49.5530   0.4860 O 1 RES   0.0000
7584 O  52.4540  49.5530   0.4860 O 1 RES   0.0000
7585 O  53.6450  52.9910   2.4310 O 1 RES   0.0000
7586 Si  53.6450  52.9910   3.8900 Si 1 RES   0.0000
7587 O  53.6450  51.6160   4.3770 O 1 RES   0.0000
7588 Si  53.6450  50.2400   4.8630 Si 1 RES   0.0000
7589 O  54.8360  49.5530   4.3770 O 1 RES   0.0000
7590 O  52.4540  49.5530   4.3770 O 1 RES   0.0000
7591 Si  53.6450  50.2400   7.7810 Si 1 RES   0.0000
7592 O  54.8360  49.5530   8.2670 O 1 RES   0.0000
7593 O  52.4540  49.5530   8.2670 O 1 RES   0.0000
7594 O  53.6450  51.6160   8.2670 O 1 RES   0.0000
7595 Si  53.6450  52.9910   8.7530 Si 1 RES   0.0000
7596 O  53.6450  52.9910  10.2120 O 1 RES   0.0000
7597 O  51.2620  54.3660   6.3220 O 1 RES   0.0000
7598 Si  51.2620  54.3660   0.0000 Si 1 RES   0.0000
7599 O  51.2620  55.7420   0.4860 O 1 RES   0.0000
7600 Si  51.2620  57.1170   0.9730 Si 1 RES   0.0000
7601 O  52.4540  53.6790   0.4860 O 1 RES   0.0000
7602 O  50.0710  53.6790   0.4860 O 1 RES   0.0000
7603 O  51.2620  57.1170   2.4310 O 1 RES   0.0000
7604 Si  51.2620  57.1170   3.8900 Si 1 RES   0.0000
7605 O  51.2620  55.7420   4.3770 O 1 RES   0.0000
7606 Si  51.2620  54.3660   4.8630 Si 1 RES   0.0000
7607 O  52.4540  53.6790   4.3770 O 1 RES   0.0000
7608 O  50.0710  53.6790   4.3770 O 1 RES   0.0000
7609 Si  51.2620  54.3660   7.7810 Si 1 RES   0.0000
7610 O  52.4540  53.6790   8.2670 O 1 RES   0.0000
7611 O  50.0710  53.6790   8.2670 O 1 RES   0.0000
7612 O  51.2620  55.7420   8.2670 O 1 RES   0.0000
7613 Si  51.2620  57.1170   8.7530 Si 1 RES   0.0000
7614 O  51.2620  57.1170  10.2120 O 1 RES   0.0000
7615 O  56.0270  54.3660   6.3220 O 1 RES   0.0000
7616 Si  56.0270  54.3660   0.0000 Si 1 RES   0.0000
7617 O  56.0270  55.7420   0.4860 O 1 RES   0.0000
7618 Si  56.0270  57.1170   0.9730 Si 1 RES   0.0000
7619 O  57.2180  53.6790   0.4860 O 1 RES   0.0000
7620 O  54.8360  53.6790   0.4860 O 1 RES   0.0000
7621 O  56.0270  57.1170   2.4310 O 1 RES   0.0000
7622 Si  56.0270  57.1170   3.8900 Si 1 RES   0.0000
7623 O  56.0270  55.7420   4.3770 O 1 RES   0.0000
7624 Si  56.0270  54.3660   4.8630 Si 1 RES   0.0000
7625 O  57.2180  53.6790   4.3770 O 1 RES   0.0000
7626 O  54.8360  53.6790   4.3770 O 1 RES   0.0000
7627 Si  56.0270  54.3660   7.7810 Si 1 RES   0.0000
7628 O  57.2180  53.6790   8.2670 O 1 RES   0.0000
7629 O  54.8360  53.6790   8.2670 O 1 RES   0.0000
7630 O  56.0270  55.7420   8.2670 O 1 RES   0.0000
7631 Si  56.0270  57.1170   8.7530 Si 1 RES   0.0000
7632 O  56.0270  57.1170  10.2120 O 1 RES   0.0000
7633 O  58.4090  50.2400   6.3220 O 1 RES   0.0000
7634 Si  58.4090  50.2400   0.0000 Si 1 RES   0.0000
7635 O  58.4090  51.6160   0.4860 O 1 RES   0.0000
7636 Si  58.4090  52.9910   0.9730 Si 1 RES   0.0000
7637 O  59.6010  49.5530   0.4860 O 1 RES   0.0000
7638 O  57.2180  49.5530   0.4860 O 1 RES   0.0000
7639 O  58.4090  52.9910   2.4310 O 1 RES   0.0000
7640 Si  58.4090  52.9910   3.8900 Si 1 RES   0.0000
7641 O  58.4090  51.6160   4.3770 O 1 RES   0.0000
7642 Si  58.4090  50.2400   4.8630 Si 1 RES   0.0000
7643 O  59.6010  49.5530   4.3770 O 1 RES   0.0000
7644 O  57.2180  49.5530   4.3770 O 1 RES   0.0000
7645 Si  58.4090  50.2400   7.7810 Si 1 RES   0.0000
7646 O  59.6010  49.5530   8.2670 O 1 RES   0.0000
7647 O  57.2180  49.5530   8.2670 O 1 RES   0.0000
7648 O  58.4090  51.6160   8.2670 O 1 RES   0.0000
7649 Si  58.4090  52.9910   8.7530 Si 1 RES   0.0000
7650 O  58.4090  52.9910  10.2120 O 1 RES   0.0000
7651 O  63.1740  50.2400   6.3220 O 1 RES   0.0000
7652 Si  63.1740  50.2400   0.0000 Si 1 RES   0.0000
7653 O  63.1740  51.6160   0.4860 O 1 RES   0.0000
7654 Si  63.1740  52.9910   0.9730 Si 1 RES   0.0000
7655 O  64.3650  49.5530   0.4860 O 1 RES   0.0000
7656 O  61.9830  49.5530   0.4860 O 1 RES   0.0000
7657 O  63.1740  52.9910   2.4310 O 1 RES   0.0000
7658 Si  63.1740  52.9910   3.8900 Si 1 RES   0.0000
7659 O  63.1740  51.6160   4.3770 O 1 RES   0.0000
7660 Si  63.1740  50.2400   4.8630 Si 1 RES   0.0000
7661 O  64.3650  49.5530   4.3770 O 1 RES   0.0000
7662 O  61.9830  49.5530   4.3770 O 1 RES   0.0000
7663 Si  63.1740  50.2400   7.7810 Si 1 RES   0.0000
7664 O  64.3650  49.5530   8.2670 O 1 RES   0.0000
7665 O  61.9830  49.5530   8.2670 O 1 RES   0.0000
7666 O  63.1740  51.6160   8.2670 O 1 RES   0.0000
7667 Si  63.1740  52.9910   8.7530 Si 1 RES   0.0000
7668 O  63.1740  52.9910  10.2120 O 1 RES   0.0000
7669 O  60.7920  54.3660   6.3220 O 1 RES   0.0000
7670 Si  60.7920  54.3660   0.0000 Si 1 RES   0.0000
7671 O  60.7920  55.7420   0.4860 O 1 RES   0.0000
7672 Si  60.7920  57.1170   0.9730 Si 1 RES   0.0000
7673 O  61.9830  53.6790   0.4860 O 1 RES   0.0000
7674 O  59.6010  53.6790   0.4860 O 1 RES   0.0000
7675 O  60.7920  57.1170   2.4310 O 1 RES   0.0000
7676 Si  60.7920  57.1170   3.8900 Si 1 RES   0.0000
7677 O  60.7920  55.7420   4.3770 O 1 RES   0.0000
7678 Si  60.7920  54.3660   4.8630 Si 1 RES   0.0000
7679 O  61.9830  53.6790   4.3770 O 1 RES   0.0000
7680 O  59.6010  53.6790   4.3770 O 1 RES   0.0000
7681 Si  60.7920  54.3660   7.7810 Si 1 RES   0.0000
7682 O  61.9830  53.6790   8.2670 O 1 RES   0.0000
7683 O  59.6010  53.6790   8.2670 O 1 RES   0.0000
7684 O  60.7920  55.7420   8.2670 O 1 RES   0.0000
7685 Si  60.7920  57.1170   8.7530 Si 1 RES   0.0000
7686 O  60.7920  57.1170  10.2120 O 1 RES   0.0000
7687 O  65.5560  54.3660   6.3220 O 1 RES   0.0000
7688 Si  65.5560  54.3660   0.0000 Si 1 RES   0.0000
7689 O  65.5560  55.7420   0.4860 O 1 RES   0.0000
7690 Si  65.5560  57.1170   0.9730 Si 1 RES   0.0000
7691 O  66.7470  53.6790   0.4860 O 1 RES   0.0000
7692 O  64.3650  53.6790   0.4860 O 1 RES   0.0000
7693 O  65.5560  57.1170   2.4310 O 1 RES   0.0000
7694 Si  65.5560  57.1170   3.8900 Si 1 RES   0.0000
7695 O  65.5560  55.7420   4.3770 O 1 RES   0.0000
7696 Si  65.5560  54.3660   4.8630 Si 1 RES   0.0000
7697 O  66.7470  53.6790   4.3770 O 1 RES   0.0000
7698 O  64.3650  53.6790   4.3770 O 1 RES   0.0000
7699 Si  65.5560  54.3660   7.7810 Si 1 RES   0.0000
7700 O  66.7470  53.6790   8.2670 O 1 RES   0.0000
7701 O  64.3650  53.6790   8.2670 O 1 RES   0.0000
7702 O  65.5560  55.7420   8.2670 O 1 RES   0.0000
7703 Si  65.5560  57.1170   8.7530 Si 1 RES   0.0000
7704 O  65.5560  57.1170  10.2120 O 1 RES   0.0000
7705 O  67.9390  50.2400   6.3220 O 1 RES   0.0000
7706 Si  67.9390  50.2400   0.0000 Si 1 RES   0.0000
7707 O  67.9390  51.6160   0.4860 O 1 RES   0.0000
7708 Si  67.9390  52.9910   0.9730 Si 1 RES   0.0000
7709 O  69.1300  49.5530   0.4860 O 1 RES   0.0000
7710 O  66.7470  49.5530   0.4860 O 1 RES   0.0000
7711 O  67.9390  52.9910   2.4310 O 1 RES   0.0000
7712 Si  67.9390  52.9910   3.8900 Si 1 RES   0.0000
7713 O  67.9390  51.6160   4.3770 O 1 RES   0.0000
7714 Si  67.9390  50.2400   4.8630 Si 1 RES   0.0000
7715 O  69.1300  49.5530   4.3770 O 1 RES   0.0000
7716 O  66.7470  49.5530   4.3770 O 1 RES   0.0000
7717 Si  67.9390  50.2400   7.7810 Si 1 RES   0.0000
7718 O  69.1300  49.5530   8.2670 O 1 RES   0.0000
7719 O  66.7470  49.5530   8.2670 O 1 RES   0.0000
7720 O  67.9390  51.6160   8.2670 O 1 RES   0.0000
7721 Si  67.9390  52.9910   8.7530 Si 1 RES   0.0000
7722 O  67.9390  52.9910  10.2120 O 1 RES   0.0000
7723 O  72.7030  50.2400   6.3220 O 1 RES   0.0000
7724 Si  72.7030  50.2400   0.0000 Si 1 RES   0.0000
7725 O  72.7030  51.6160   0.4860 O 1 RES   0.0000
7726 Si  72.7030  52.9910   0.9730 Si 1 RES   0.0000
7727 O  73.8940  49.5530   0.4860 O 1 RES   0.0000
7728 O  71.5120  49.5530   0.4860 O 1 RES   0.0000
7729 O  72.7030  52.9910   2.4310 O 1 RES   0.0000
7730 Si  72.7030  52.9910   3.8900 Si 1 RES   0.0000
7731 O  72.7030  51.6160   4.3770 O 1 RES   0.0000
7732 Si  72.7030  50.2400   4.8630 Si 1 RES   0.0000
7733 O  73.8940  49.5530   4.3770 O 1 RES   0.0000
7734 O  71.5120  49.5530   4.3770 O 1 RES   0.0000
7735 Si  72.7030  50.2400   7.7810 Si 1 RES   0.0000
7736 O  73.8940  49.5530   8.2670 O 1 RES   0.0000
7737 O  71.5120  49.5530   8.2670 O 1 RES   0.0000
7738 O  72.7030  51.6160   8.2670 O 1 RES   0.0000
7739 Si  72.7030  52.9910   8.7530 Si 1 RES   0.0000
7740 O  72.7030  52.9910  10.2120 O 1 RES   0.0000
7741 O  70.3210  54.3660   6.3220 O 1 RES   0.0000
7742 Si  70.3210  54.3660   0.0000 Si 1 RES   0.0000
7743 O  70.3210  55.7420   0.4860 O 1 RES   0.0000
7744 Si  70.3210  57.1170   0.9730 Si 1 RES   0.0000
7745 O  71.5120  53.6790   0.4860 O 1 RES   0.0000
7746 O  69.1300  53.6790   0.4860 O 1 RES   0.0000
7747 O  70.3210  57.1170   2.4310 O 1 RES   0.0000
7748 Si  70.3210  57.1170   3.8900 Si 1 RES   0.0000
7749 O  70.3210  55.7420   4.3770 O 1 RES   0.0000
7750 Si  70.3210  54.3660   4.8630 Si 1 RES   0.0000
7751 O  71.5120  53.6790   4.3770 O 1 RES   0.0000
7752 O  69.1300  53.6790   4.3770 O 1 RES   0.0000
7753 Si  70.3210  54.3660   7.7810 Si 1 RES   0.0000
7754 O  71.5120  53.6790   8.2670 O 1 RES   0.0000
7755 O  69.1300  53.6790   8.2670 O 1 RES   0.0000
7756 O  70.3210  55.7420   8.2670 O 1 RES   0.0000
7757 Si  70.3210  57.1170   8.7530 Si 1 RES   0.0000
7758 O  70.3210  57.1170  10.2120 O 1 RES   0.0000
7759 O  75.0850  54.3660   6.3220 O 1 RES   0.0000
7760 Si  75.0850  54.3660   0.0000 Si 1 RES   0.0000
7761 O  75.0850  55.7420   0.4860 O 1 RES   0.0000
7762 Si  75.0850  57.1170   0.9730 Si 1 RES   0.0000
7763 O  76.2760  53.6790   0.4860 O 1 RES   0.0000
7764 O  73.8940  53.6790   0.4860 O 1 RES   0.0000
7765 O  75.0850  57.1170   2.4310 O 1 RES   0.0000
7766 Si  75.0850  57.1170   3.8900 Si 1 RES   0.0000
7767 O  75.0850  55.7420   4.3770 O 1 RES   0.0000
7768 Si  75.0850  54.3660   4.8630 Si 1 RES   0.0000
7769 O  76.2760  53.6790   4.3770 O 1 RES   0.0000
7770 O  73.8940  53.6790   4.3770 O 1 RES   0.0000
7771 Si  75.0850  54.3660   7.7810 Si 1 RES   0.0000
7772 O  76.2760  53.6790   8.2670 O 1 RES   0.0000
7773 O  73.8940  53.6790   8.2670 O 1 RES   0.0000
7774 O  75.0850  55.7420   8.2670 O 1 RES   0.0000
7775 Si  75.0850  57.1170   8.7530 Si 1 RES   0.0000
7776 O  75.0850  57.1170  10.2120 O 1 RES   0.0000
7777 O  77.4680  50.2400   6.3220 O 1 RES   0.0000
7778 Si  77.4680  50.2400   0.0000 Si 1 RES   0.0000
7779 O  77.4680  51.6160   0.4860 O 1 RES   0.0000
7780 Si  77.4680  52.9910   0.9730 Si 1 RES   0.0000
7781 O  78.6590  49.5530   0.4860 O 1 RES   0.0000
7782 O  76.2760  49.5530   0.4860 O 1 RES   0.0000
7783 O  77.4680  52.9910   2.4310 O 1 RES   0.0000
7784 Si  77.4680  52.9910   3.8900 Si 1 RES   0.0000
7785 O  77.4680  51.6160   4.3770 O 1 RES   0.0000
7786 Si  77.4680  50.2400   4.8630 Si 1 RES   0.0000
7787 O  78.6590  49.5530   4.3770 O 1 RES   0.0000
7788 O  76.2760  49.5530   4.3770 O 1 RES   0.0000
7789 Si  77.4680  50.2400   7.7810 Si 1 RES   0.0000
7790 O  78.6590  49.5530   8.2670 O 1 RES   0.0000
7791 O  76.2760  49.5530   8.2670 O 1 RES   0.0000
7792 O  77.4680  51.6160   8.2670 O 1 RES   0.0000
7793 Si  77.4680  52.9910   8.7530 Si 1 RES   0.0000
7794 O  77.4680  52.9910  10.2120 O 1 RES   0.0000
7795 O  82.2320  50.2400   6.3220 O 1 RES   0.0000
7796 Si  82.2320  50.2400   0.0000 Si 1 RES   0.0000
7797 O  82.2320  51.6160   0.4860 O 1 RES   0.0000
7798 Si  82.2320  52.9910   0.9730 Si 1 RES   0.0000
7799 O  83.4230  49.5530   0.4860 O 1 RES   0.0000
7800 O  81.0410  49.5530   0.4860 O 1 RES   0.0000
7801 O  82.2320  52.9910   2.4310 O 1 RES   0.0000
7802 Si  82.2320  52.9910   3.8900 Si 1 RES   0.0000
7803 O  82.2320  51.6160   4.3770 O 1 RES   0.0000
7804 Si  82.2320  50.2400   4.8630 Si 1 RES   0.0000
7805 O  83.4230  49.5530   4.3770 O 1 RES   0.0000
7806 O  81.0410  49.5530   4.3770 O 1 RES   0.0000
7807 Si  82.2320  50.2400   7.7810 Si 1 RES   0.0000
7808 O  83.4230  49.5530   8.2670 O 1 RES   0.0000
7809 O  81.0410  49.5530   8.2670 O 1 RES   0.0000
7810 O  82.2320  51.6160   8.2670 O 1 RES   0.0000
7811 Si  82.2320  52.9910   8.7530 Si 1 RES   0.0000
7812 O  82.2320  52.9910  10.2120 O 1 RES   0.0000
7813 O  79.8500  54.3660   6.3220 O 1 RES   0.0000
7814 Si  79.8500  54.3660   0.0000 Si 1 RES   0.0000
7815 O  79.8500  55.7420   0.4860 O 1 RES   0.0000
7816 Si  79.8500  57.1170   0.9730 Si 1 RES   0.0000
7817 O  81.0410  53.6790   0.4860 O 1 RES   0.0000
7818 O  78.6590  53.6790   0.4860 O 1 RES   0.0000
7819 O  79.8500  57.1170   2.4310 O 1 RES   0.0000
7820 Si  79.8500  57.1170   3.8900 Si 1 RES   0.0000
7821 O  79.8500  55.7420   4.3770 O 1 RES   0.0000
7822 Si  79.8500  54.3660   4.8630 Si 1 RES   0.0000
7823 O  81.0410  53.6790   4.3770 O 1 RES   0.0000
7824 O  78.6590  53.6790   4.3770 O 1 RES   0.0000
7825 Si  79.8500  54.3660   7.7810 Si 1 RES   0.0000
7826 O  81.0410  53.6790   8.2670 O 1 RES   0.0000
7827 O  78.6590  53.6790   8.2670 O 1 RES   0.0000
7828 O  79.8500  55.7420   8.2670 O 1 RES   0.0000
7829 Si  79.8500  57.1170   8.7530 Si 1 RES   0.0000
7830 O  79.8500  57.1170  10.2120 O 1 RES   0.0000
7831 O  84.6140  54.3660   6.3220 O 1 RES   0.0000
7832 Si  84.6140  54.3660   0.0000 Si 1 RES   0.0000
7833 O  84.6140  55.7420   0.4860 O 1 RES   0.0000
7834 Si  84.6140  57.1170   0.9730 Si 1 RES   0.0000
7835 O  85.8060  53.6790   0.4860 O 1 RES   0.0000
7836 O  83.4230  53.6790   0.4860 O 1 RES   0.0000
7837 O  84.6140  57.1170   2.4310 O 1 RES   0.0000
7838 Si  84.6140  57.1170   3.8900 Si 1 RES   0.0000
7839 O  84.6140  55.7420   4.3770 O 1 RES   0.0000
7840 Si  84.6140  54.3660   4.8630 Si 1 RES   0.0000
7841 O  85.8060  53.6790   4.3770 O 1 RES   0.0000
7842 O  83.4230  53.6790   4.3770 O 1 RES   0.0000
7843 Si  84.6140  54.3660   7.7810 Si 1 RES   0.0000
7844 O  85.8060  53.6790   8.2670 O 1 RES   0.0000
7845 O  83.4230  53.6790   8.2670 O 1 RES   0.0000
7846 O  84.6140  55.7420   8.2670 O 1 RES   0.0000
7847 Si  84.6140  57.1170   8.7530 Si 1 RES   0.0000
7848 O  84.6140  57.1170  10.2120 O 1 RES   0.0000
7849 O  86.9970  50.2400   6.3220 O 1 RES   0.0000
7850 Si  86.9970  50.2400   0.0000 Si 1 RES   0.0000
7851 O  86.9970  51.6160   0.4860 O 1 RES   0.0000
7852 Si  86.9970  52.9910   0.9730 Si 1 RES   0.0000
7853 O  88.1880  49.5530   0.4860 O 1 RES   0.0000
7854 O  85.8060  49.5530   0.4860 O 1 RES   0.0000
7855 O  86.9970  52.9910   2.4310 O 1 RES   0.0000
7856 Si  86.9970  52.9910   3.8900 Si 1 RES   0.0000
7857 O  86.9970  51.6160   4.3770 O 1 RES   0.0000
7858 Si  86.9970  50.2400   4.8630 Si 1 RES   0.0000
7859 O  88.1880  49.5530   4.3770 O 1 RES   0.0000
7860 O  85.8060  49.5530   4.3770 O 1 RES   0.0000
7861 Si  86.9970  50.2400   7.7810 Si 1 RES   0.0000
7862 O  88.1880  49.5530   8.2670 O 1 RES   0.0000
7863 O  85.8060  49.5530   8.2670 O 1 RES   0.0000
7864 O  86.9970  51.6160   8.2670 O 1 RES   0.0000
7865 Si  86.9970  52.9910   8.7530 Si 1 RES   0.0000
7866 O  86.9970  52.9910  10.2120 O 1 RES   0.0000
7867 O  91.7610  50.2400   6.3220 O 1 RES   0.0000
7868 Si  91.7610  50.2400   0.0000 Si 1 RES   0.0000
7869 O  91.7610  51.6160   0.4860 O 1 RES   0.0000
7870 Si  91.7610  52.9910   0.9730 Si 1 RES   0.0000
7871 O  92.9530  49.5530   0.4860 O 1 RES   0.0000
7872 O  90.5700  49.5530   0.4860 O 1 RES   0.0000
7873 O  91.7610  52.9910   2.4310 O 1 RES   0.0000
7874 Si  91.7610  52.9910   3.8900 Si 1 RES   0.0000
7875 O  91.7610  51.6160   4.3770 O 1 RES   0.0000
7876 Si  91.7610  50.2400   4.8630 Si 1 RES   0.0000
7877 O  92.9530  49.5530   4.3770 O 1 RES   0.0000
7878 O  90.5700  49.5530   4.3770 O 1 RES   0.0000
7879 Si  91.7610  50.2400   7.7810 Si 1 RES   0.0000
7880 O  92.9530  49.5530   8.2670 O 1 RES   0.0000
7881 O  90.5700  49.5530   8.2670 O 1 RES   0.0000
7882 O  91.7610  51.6160   8.2670 O 1 RES   0.0000
7883 Si  91.7610  52.9910   8.7530 Si 1 RES   0.0000
7884 O  91.7610  52.9910  10.2120 O 1 RES   0.0000
7885 O  89.3790  54.3660   6.3220 O 1 RES   0.0000
7886 Si  89.3790  54.3660   0.0000 Si 1 RES   0.0000
7887 O  89.3790  55.7420   0.4860 O 1 RES   0.0000
7888 Si  89.3790  57.1170   0.9730 Si 1 RES   0.0000
7889 O  90.5700  53.6790   0.4860 O 1 RES   0.0000
7890 O  88.1880  53.6790   0.4860 O 1 RES   0.0000
7891 O  89.3790  57.1170   2.4310 O 1 RES   0.0000
7892 Si  89.3790  57.1170   3.8900 Si 1 RES   0.0000
7893 O  89.3790  55.7420   4.3770 O 1 RES   0.0000
7894 Si  89.3790  54.3660   4.8630 Si 1 RES   0.0000
7895 O  90.5700  53.6790   4.3770 O 1 RES   0.0000
7896 O  88.1880  53.6790   4.3770 O 1 RES   0.0000
7897 Si  89.3790  54.3660   7.7810 Si 1 RES   0.0000
7898 O  90.5700  53.6790   8.2670 O 1 RES   0.0000
7899 O  88.1880  53.6790   8.2670 O 1 RES   0.0000
7900 O  89.3790  55.7420   8.2670 O 1 RES   0.0000
7901 Si  89.3790  57.1170   8.7530 Si 1 RES   0.0000
7902 O  89.3790  57.1170  10.2120 O 1 RES   0.0000
7903 O  94.1440  54.3660   6.3220 O 1 RES   0.0000
7904 Si  94.1440  54.3660   0.0000 Si 1 RES   0.0000
7905 O  94.1440  55.7420   0.4860 O 1 RES   0.0000
7906 Si  94.1440  57.1170   0.9730 Si 1 RES   0.0000
7907 O  47.6460  53.6790   0.4860 O 1 RES   0.0000
7908 O  92.9530  53.6790   0.4860 O 1 RES   0.0000
7909 O  94.1440  57.1170   2.4310 O 1 RES   0.0000
7910 Si  94.1440  57.1170   3.8900 Si 1 RES   0.0000
7911 O  94.1440  55.7420   4.3770 O 1 RES   0.0000
7912 Si  94.1440  54.3660   4.8630 Si 1 RES   0.0000
7913 O  47.6460  53.6790   4.3770 O 1 RES   0.0000
7914 O  92.9530  53.6790   4.3770 O 1 RES   0.0000
7915 Si  94.1440  54.3660   7.7810 Si 1 RES   0.0000
7916 O  47.6460  53.6790   8.2670 O 1 RES   0.0000
7917 O  92.9530  53.6790   8.2670 O 1 RES   0.0000
7918 O  94.1440  55.7420   8.2670 O 1 RES   0.0000
7919 Si  94.1440  57.1170   8.7530 Si 1 RES   0.0000
7920 O  94.1440  57.1170  10.2120 O 1 RES   0.0000
7921 O  48.8800  58.4930   6.3220 O 1 RES   0.0000
7922 Si  48.8800  58.4930   0.0000 Si 1 RES   0.0000
7923 O  48.8800  59.8680   0.4860 O 1 RES   0.0000
7924 Si  48.8800  61.2440   0.9730 Si 1 RES   0.0000
7925 O  50.0710  57.8050   0.4860 O 1 RES   0.0000
7926 O  47.6890  57.8050   0.4860 O 1 RES   0.0000
7927 O  48.8800  61.2440   2.4310 O 1 RES   0.0000
7928 Si  48.8800  61.2440   3.8900 Si 1 RES   0.0000
7929 O  48.8800  59.8680   4.3770 O 1 RES   0.0000
7930 Si  48.8800  58.4930   4.8630 Si 1 RES   0.0000
7931 O  50.0710  57.8050   4.3770 O 1 RES   0.0000
7932 O  47.6890  57.8050   4.3770 O 1 RES   0.0000
7933 Si  48.8800  58.4930   7.7810 Si 1 RES   0.0000
7934 O  50.0710  57.8050   8.2670 O 1 RES   0.0000
7935 O  47.6890  57.8050   8.2670 O 1 RES   0.0000
7936 O  48.8800  59.8680   8.2670 O 1 RES   0.0000
7937 Si  48.8800  61.2440   8.7530 Si 1 RES   0.0000
7938 O  48.8800  61.2440  10.2120 O 1 RES   0.0000
7939 O  53.6450  58.4930   6.3220 O 1 RES   0.0000
7940 Si  53.6450  58.4930   0.0000 Si 1 RES   0.0000
7941 O  53.6450  59.8680   0.4860 O 1 RES   0.0000
7942 Si  53.6450  61.2440   0.9730 Si 1 RES   0.0000
7943 O  54.8360  57.8050   0.4860 O 1 RES   0.0000
7944 O  52.4540  57.8050   0.4860 O 1 RES   0.0000
7945 O  53.6450  61.2440   2.4310 O 1 RES   0.0000
7946 Si  53.6450  61.2440   3.8900 Si 1 RES   0.0000
7947 O  53.6450  59.8680   4.3770 O 1 RES   0.0000
7948 Si  53.6450  58.4930   4.8630 Si 1 RES   0.0000
7949 O  54.8360  57.8050   4.3770 O 1 RES   0.0000
7950 O  52.4540  57.8050   4.3770 O 1 RES   0.0000
7951 Si  53.6450  58.4930   7.7810 Si 1 RES   0.0000
7952 O  54.8360  57.8050   8.2670 O 1 RES   0.0000
7953 O  52.4540  57.8050   8.2670 O 1 RES   0.0000
7954 O  53.6450  59.8680   8.2670 O 1 RES   0.0000
7955 Si  53.6450  61.2440   8.7530 Si 1 RES   0.0000
7956 O  53.6450  61.2440  10.2120 O 1 RES   0.0000
7957 O  51.2620  62.6190   6.3220 O 1 RES   0.0000
7958 Si  51.2620  62.6190   0.0000 Si 1 RES   0.0000
7959 O  51.2620  63.9940   0.4860 O 1 RES   0.0000
7960 Si  51.2620  65.3700   0.9730 Si 1 RES   0.0000
7961 O  52.4540  61.9310   0.4860 O 1 RES   0.0000
7962 O  50.0710  61.9310   0.4860 O 1 RES   0.0000
7963 O  51.2620  65.3700   2.4310 O 1 RES   0.0000
7964 Si  51.2620  65.3700   3.8900 Si 1 RES   0.0000
7965 O  51.2620  63.9940   4.3770 O 1 RES   0.0000
7966 Si  51.2620  62.6190   4.8630 Si 1 RES   0.0000
7967 O  52.4540  61.9310   4.3770 O 1 RES   0.0000
7968 O  50.0710  61.9310   4.3770 O 1 RES   0.0000
7969 Si  51.2620  62.6190   7.7810 Si 1 RES   0.0000
7970 O  52.4540  61.9310   8.2670 O 1 RES   0.0000
7971 O  50.0710  61.9310   8.2670 O 1 RES   0.0000
7972 O  51.2620  63.9940   8.2670 O 1 RES   0.0000
7973 Si  51.2620  65.3700   8.7530 Si 1 RES   0.0000
7974 O  51.2620  65.3700  10.2120 O 1 RES   0.0000
7975 O  56.0270  62.6190   6.3220 O 1 RES   0.0000
7976 Si  56.0270  62.6190   0.0000 Si 1 RES   0.0000
7977 O  56.0270  63.9940   0.4860 O 1 RES   0.0000
7978 Si  56.0270  65.3700   0.9730 Si 1 RES   0.0000
7979 O  57.2180  61.9310   0.4860 O 1 RES   0.0000
7980 O  54.8360  61.9310   0.4860 O 1 RES   0.0000
7981 O  56.0270  65.3700   2.4310 O 1 RES   0.0000
7982 Si  56.0270  65.3700   3.8900 Si 1 RES   0.0000
7983 O  56.0270  63.9940   4.3770 O 1 RES   0.0000
7984 Si  56.0270  62.6190   4.8630 Si 1 RES   0.0000
7985 O  57.2180  61.9310   4.3770 O 1 RES   0.0000
7986 O  54.8360  61.9310   4.3770 O 1 RES   0.0000
7987 Si  56.0270  62.6190   7.7810 Si 1 RES   0.0000
7988 O  57.2180  61.9310   8.2670 O 1 RES   0.0000
7989 O  54.8360  61.9310   8.2670 O 1 RES   0.0000
7990 O  56.0270  63.9940   8.2670 O 1 RES   0.0000
7991 Si  56.0270  65.3700   8.7530 Si 1 RES   0.0000
7992 O  56.0270  65.3700  10.2120 O 1 RES   0.0000
7993 O  58.4090  58.4930   6.3220 O 1 RES   0.0000
7994 Si  58.4090  58.4930   0.0000 Si 1 RES   0.0000
7995 O  58.4090  59.8680   0.4860 O 1 RES   0.0000
7996 Si  58.4090  61.2440   0.9730 Si 1 RES   0.0000
7997 O  59.6010  57.8050   0.4860 O 1 RES   0.0000
7998 O  57.2180  57.8050   0.4860 O 1 RES   0.0000
7999 O  58.4090  61.2440   2.4310 O 1 RES   0.0000
8000 Si  58.4090  61.2440   3.8900 Si 1 RES   0.0000
8001 O  58.4090  59.8680   4.3770 O 1 RES   0.0000
8002 Si  58.4090  58.4930   4.8630 Si 1 RES   0.0000
8003 O  59.6010  57.8050   4.3770 O 1 RES   0.0000
8004 O  57.2180  57.8050   4.3770 O 1 RES   0.0000
8005 Si  58.4090  58.4930   7.7810 Si 1 RES   0.0000
8006 O  59.6010  57.8050   8.2670 O 1 RES   0.0000
8007 O  57.2180  57.8050   8.2670 O 1 RES   0.0000
8008 O  58.4090  59.8680   8.2670 O 1 RES   0.0000
8009 Si  58.4090  61.2440   8.7530 Si 1 RES   0.0000
8010 O  58.4090  61.2440  10.2120 O 1 RES   0.0000
8011 O  63.1740  58.4930   6.3220 O 1 RES   0.0000
8012 Si  63.1740  58.4930   0.0000 Si 1 RES   0.0000
8013 O  63.1740  59.8680   0.4860 O 1 RES   0.0000
8014 Si  63.1740  61.2440   0.9730 Si 1 RES   0.0000
8015 O  64.3650  57.8050   0.4860 O 1 RES   0.0000
8016 O  61.9830  57.8050   0.4860 O 1 RES   0.0000
8017 O  63.1740  61.2440   2.4310 O 1 RES   0.0000
8018 Si  63.1740  61.2440   3.8900 Si 1 RES   0.0000
8019 O  63.1740  59.8680   4.3770 O 1 RES   0.0000
8020 Si  63.1740  58.4930   4.8630 Si 1 RES   0.0000
8021 O  64.3650  57.8050   4.3770 O 1 RES   0.0000
8022 O  61.9830  57.8050   4.3770 O 1 RES   0.0000
8023 Si  63.1740  58.4930   7.7810 Si 1 RES   0.0000
8024 O  64.3650  57.8050   8.2670 O 1 RES   0.0000
8025 O  61.9830  57.8050   8.2670 O 1 RES   0.0000
8026 O  63.1740  59.8680   8.2670 O 1 RES   0.0000
8027 Si  63.1740  61.2440   8.7530 Si 1 RES   0.0000
8028 O  63.1740  61.2440  10.2120 O 1 RES   0.0000
8029 O  60.7920  62.6190   6.3220 O 1 RES   0.0000
8030 Si  60.7920  62.6190   0.0000 Si 1 RES   0.0000
8031 O  60.7920  63.9940   0.4860 O 1 RES   0.0000
8032 Si  60.7920  65.3700   0.9730 Si 1 RES   0.0000
8033 O  61.9830  61.9310   0.4860 O 1 RES   0.0000
8034 O  59.6010  61.9310   0.4860 O 1 RES   0.0000
8035 O  60.7920  65.3700   2.4310 O 1 RES   0.0000
8036 Si  60.7920  65.3700   3.8900 Si 1 RES   0.0000
8037 O  60.7920  63.9940   4.3770 O 1 RES   0.0000
8038 Si  60.7920  62.6190   4.8630 Si 1 RES   0.0000
8039 O  61.9830  61.9310   4.3770 O 1 RES   0.0000
8040 O  59.6010  61.9310   4.3770 O 1 RES   0.0000
8041 Si  60.7920  62.6190   7.7810 Si 1 RES   0.0000
8042 O  61.9830  61.9310   8.2670 O 1 RES   0.0000
8043 O  59.6010  61.9310   8.2670 O 1 RES   0.0000
8044 O  60.7920  63.9940   8.2670 O 1 RES   0.0000
8045 Si  60.7920  65.3700   8.7530 Si 1 RES   0.0000
8046 O  60.7920  65.3700  10.2120 O 1 RES   0.0000
8047 O  65.5560  62.6190   6.3220 O 1 RES   0.0000
8048 Si  65.5560  62.6190   0.0000 Si 1 RES   0.0000
8049 O  65.5560  63.9940   0.4860 O 1 RES   0.0000
8050 Si  65.5560  65.3700   0.9730 Si 1 RES   0.0000
8051 O  66.7470  61.9310   0.4860 O 1 RES   0.0000
8052 O  64.3650  61.9310   0.4860 O 1 RES   0.0000
8053 O  65.5560  65.3700   2.4310 O 1 RES   0.0000
8054 Si  65.5560  65.3700   3.8900 Si 1 RES   0.0000
8055 O  65.5560  63.9940   4.3770 O 1 RES   0.0000
8056 Si  65.5560  62.6190   4.8630 Si 1 RES   0.0000
8057 O  66.7470  61.9310   4.3770 O 1 RES   0.0000
8058 O  64.3650  61.9310   4.3770 O 1 RES   0.0000
8059 Si  65.5560  62.6190   7.7810 Si 1 RES   0.0000
8060 O  66.7470  61.9310   8.2670 O 1 RES   0.0000
8061 O  64.3650  61.9310   8.2670 O 1 RES   0.0000
8062 O  65.5560  63.9940   8.2670 O 1 RES   0.0000
8063 Si  65.5560  65.3700   8.7530 Si 1 RES   0.0000
8064 O  65.5560  65.3700  10.2120 O 1 RES   0.0000
8065 O  67.9390  58.4930   6.3220 O 1 RES   0.0000
8066 Si  67.9390  58.4930   0.0000 Si 1 RES   0.0000
8067 O  67.9390  59.8680   0.4860 O 1 RES   0.0000
8068 Si  67.9390  61.2440   0.9730 Si 1 RES   0.0000
8069 O  69.1300  57.8050   0.4860 O 1 RES   0.0000
8070 O  66.7470  57.8050   0.4860 O 1 RES   0.0000
8071 O  67.9390  61.2440   2.4310 O 1 RES   0.0000
8072 Si  67.9390  61.2440   3.8900 Si 1 RES   0.0000
8073 O  67.9390  59.8680   4.3770 O 1 RES   0.0000
8074 Si  67.9390  58.4930   4.8630 Si 1 RES   0.0000
8075 O  69.1300  57.8050   4.3770 O 1 RES   0.0000
8076 O  66.7470  57.8050   4.3770 O 1 RES   0.0000
8077 Si  67.9390  58.4930   7.7810 Si 1 RES   0.0000
8078 O  69.1300  57.8050   8.2670 O 1 RES   0.0000
8079 O  66.7470  57.8050   8.2670 O 1 RES   0.0000
8080 O  67.9390  59.8680   8.2670 O 1 RES   0.0000
8081 Si  67.9390  61.2440   8.7530 Si 1 RES   0.0000
8082 O  67.9390  61.2440  10.2120 O 1 RES   0.0000
8083 O  72.7030  58.4930   6.3220 O 1 RES   0.0000
8084 Si  72.7030  58.4930   0.0000 Si 1 RES   0.0000
8085 O  72.7030  59.8680   0.4860 O 1 RES   0.0000
8086 Si  72.7030  61.2440   0.9730 Si 1 RES   0.0000
8087 O  73.8940  57.8050   0.4860 O 1 RES   0.0000
8088 O  71.5120  57.8050   0.4860 O 1 RES   0.0000
8089 O  72.7030  61.2440   2.4310 O 1 RES   0.0000
8090 Si  72.7030  61.2440   3.8900 Si 1 RES   0.0000
8091 O  72.7030  59.8680   4.3770 O 1 RES   0.0000
8092 Si  72.7030  58.4930   4.8630 Si 1 RES   0.0000
8093 O  73.8940  57.8050   4.3770 O 1 RES   0.0000
8094 O  71.5120  57.8050   4.3770 O 1 RES   0.0000
8095 Si  72.7030  58.4930   7.7810 Si 1 RES   0.0000
8096 O  73.8940  57.8050   8.2670 O 1 RES   0.0000
8097 O  71.5120  57.8050   8.2670 O 1 RES   0.0000
8098 O  72.7030  59.8680   8.2670 O 1 RES   0.0000
8099 Si  72.7030  61.2440   8.7530 Si 1 RES   0.0000
8100 O  72.7030  61.2440  10.2120 O 1 RES   0.0000
8101 O  70.3210  62.6190   6.3220 O 1 RES   0.0000
8102 Si  70.3210  62.6190   0.0000 Si 1 RES   0.0000
8103 O  70.3210  63.9940   0.4860 O 1 RES   0.0000
8104 Si  70.3210  65.3700   0.9730 Si 1 RES   0.0000
8105 O  71.5120  61.9310   0.4860 O 1 RES   0.0000
8106 O  69.1300  61.9310   0.4860 O 1 RES   0.0000
8107 O  70.3210  65.3700   2.4310 O 1 RES   0.0000
8108 Si  70.3210  65.3700   3.8900 Si 1 RES   0.0000
8109 O  70.3210  63.9940   4.3770 O 1 RES   0.0000
8110 Si  70.3210  62.6190   4.8630 Si 1 RES   0.0000
8111 O  71.5120  61.9310   4.3770 O 1 RES   0.0000
8112 O  69.1300  61.9310   4.3770 O 1 RES   0.0000
8113 Si  70.3210  62.6190   7.7810 Si 1 RES   0.0000
8114 O  71.5120  61.9310   8.2670 O 1 RES   0.0000
8115 O  69.1300  61.9310   8.2670 O 1 RES   0.0000
8116 O  70.3210  63.9940   8.2670 O 1 RES   0.0000
8117 Si  70.3210  65.3700   8.7530 Si 1 RES   0.0000
8118 O  70.3210  65.3700  10.2120 O 1 RES   0.0000
8119 O  75.0850  62.6190   6.3220 O 1 RES   0.0000
8120 Si  75.0850  62.6190   0.0000 Si 1 RES   0.0000
8121 O  75.0850  63.9940   0.4860 O 1 RES   0.0000
8122 Si  75.0850  65.3700   0.9730 Si 1 RES   0.0000
8123 O  76.2760  61.9310   0.4860 O 1 RES   0.0000
8124 O  73.8940  61.9310   0.4860 O 1 RES   0.0000
8125 O  75.0850  65.3700   2.4310 O 1 RES   0.0000
8126 Si  75.0850  65.3700   3.8900 Si 1 RES   0.0000
8127 O  75.0850  63.9940   4.3770 O 1 RES   0.0000
8128 Si  75.0850  62.6190   4.8630 Si 1 RES   0.0000
8129 O  76.2760  61.9310   4.3770 O 1 RES   0.0000
8130 O  73.8940  61.9310   4.3770 O 1 RES   0.0000
8131 Si  75.0850  62.6190   7.7810 Si 1 RES   0.0000
8132 O  76.2760  61.9310   8.2670 O 1 RES   0.0000
8133 O  73.8940  61.9310   8.2670 O 1 RES   0.0000
8134 O  75.0850  63.9940   8.2670 O 1 RES   0.0000
8135 Si  75.0850  65.3700   8.7530 Si 1 RES   0.0000
8136 O  75.0850  65.3700  10.2120 O 1 RES   0.0000
8137 O  77.4680  58.4930   6.3220 O 1 RES   0.0000
8138 Si  77.4680  58.4930   0.0000 Si 1 RES   0.0000
8139 O  77.4680  59.8680   0.4860 O 1 RES   0.0000
8140 Si  77.4680  61.2440   0.9730 Si 1 RES   0.0000
8141 O  78.6590  57.8050   0.4860 O 1 RES   0.0000
8142 O  76.2760  57.8050   0.4860 O 1 RES   0.0000
8143 O  77.4680  61.2440   2.4310 O 1 RES   0.0000
8144 Si  77.4680  61.2440   3.8900 Si 1 RES   0.0000
8145 O  77.4680  59.8680   4.3770 O 1 RES   0.0000
8146 Si  77.4680  58.4930   4.8630 Si 1 RES   0.0000
8147 O  78.6590  57.8050   4.3770 O 1 RES   0.0000
8148 O  76.2760  57.8050   4.3770 O 1 RES   0.0000
8149 Si  77.4680  58.4930   7.7810 Si 1 RES   0.0000
8150 O  78.6590  57.8050   8.2670 O 1 RES   0.0000
8151 O  76.2760  57.8050   8.2670 O 1 RES   0.0000
8152 O  77.4680  59.8680   8.2670 O 1 RES   0.0000
8153 Si  77.4680  61.2440   8.7530 Si 1 RES   0.0000
8154 O  77.4680  61.2440  10.2120 O 1 RES   0.0000
8155 O  82.2320  58.4930   6.3220 O 1 RES   0.0000
8156 Si  82.2320  58.4930   0.0000 Si 1 RES   0.0000
8157 O  82.2320  59.8680   0.4860 O 1 RES   0.0000
8158 Si  82.2320  61.2440   0.9730 Si 1 RES   0.0000
8159 O  83.4230  57.8050   0.4860 O 1 RES   0.0000
8160 O  81.0410  57.8050   0.4860 O 1 RES   0.0000
8161 O  82.2320  61.2440   2.4310 O 1 RES   0.0000
8162 Si  82.2320  61.2440   3.8900 Si 1 RES   0.0000
8163 O  82.2320  59.8680   4.3770 O 1 RES   0.0000
8164 Si  82.2320  58.4930   4.8630 Si 1 RES   0.0000
8165 O  83.4230  57.8050   4.3770 O 1 RES   0.0000
8166 O  81.0410  57.8050   4.3770 O 1 RES   0.0000
8167 Si  82.2320  58.4930   7.7810 Si 1 RES   0.0000
8168 O  83.4230  57.8050   8.2670 O 1 RES   0.0000
8169 O  81.0410  57.8050   8.2670 O 1 RES   0.0000
8170 O  82.2320  59.8680   8.2670 O 1 RES   0.0000
8171 Si  82.2320  61.2440   8.7530 Si 1 RES   0.0000
8172 O  82.2320  61.2440  10.2120 O 1 RES   0.0000
8173 O  79.8500  62.6190   6.3220 O 1 RES   0.0000
8174 Si  79.8500  62.6190   0.0000 Si 1 RES   0.0000
8175 O  79.8500  63.9940   0.4860 O 1 RES   0.0000
8176 Si  79.8500  65.3700   0.9730 Si 1 RES   0.0000
8177 O  81.0410  61.9310   0.4860 O 1 RES   0.0000
8178 O  78.6590  61.9310   0.4860 O 1 RES   0.0000
8179 O  79.8500  65.3700   2.4310 O 1 RES   0.0000
8180 Si  79.8500  65.3700   3.8900 Si 1 RES   0.0000
8181 O  79.8500  63.9940   4.3770 O 1 RES   0.0000
8182 Si  79.8500  62.6190   4.8630 Si 1 RES   0.0000
8183 O  81.0410  61.9310   4.3770 O 1 RES   0.0000
8184 O  78.6590  61.9310   4.3770 O 1 RES   0.0000
8185 Si  79.8500  62.6190   7.7810 Si 1 RES   0.0000
8186 O  81.0410  61.9310   8.2670 O 1 RES   0.0000
8187 O  78.6590  61.9310   8.2670 O 1 RES   0.0000
8188 O  79.8500  63.9940   8.2670 O 1 RES   0.0000
8189 Si  79.8500  65.3700   8.7530 Si 1 RES   0.0000
8190 O  79.8500  65.3700  10.2120 O 1 RES   0.0000
8191 O  84.6140  62.6190   6.3220 O 1 RES   0.0000
8192 Si  84.6140  62.6190   0.0000 Si 1 RES   0.0000
8193 O  84.6140  63.9940   0.4860 O 1 RES   0.0000
8194 Si  84.6140  65.3700   0.9730 Si 1 RES   0.0000
8195 O  85.8060  61.9310   0.4860 O 1 RES   0.0000
8196 O  83.4230  61.9310   0.4860 O 1 RES   0.0000
8197 O  84.6140  65.3700   2.4310 O 1 RES   0.0000
8198 Si  84.6140  65.3700   3.8900 Si 1 RES   0.0000
8199 O  84.6140  63.9940   4.3770 O 1 RES   0.0000
8200 Si  84.6140  62.6190   4.8630 Si 1 RES   0.0000
8201 O  85.8060  61.9310   4.3770 O 1 RES   0.0000
8202 O  83.4230  61.9310   4.3770 O 1 RES   0.0000
8203 Si  84.6140  62.6190   7.7810 Si 1 RES   0.0000
8204 O  85.8060  61.9310   8.2670 O 1 RES   0.0000
8205 O  83.4230  61.9310   8.2670 O 1 RES   0.0000
8206 O  84.6140  63.9940   8.2670 O 1 RES   0.0000
8207 Si  84.6140  65.3700   8.7530 Si 1 RES   0.0000
8208 O  84.6140  65.3700  10.2120 O 1 RES   0.0000
8209 O  86.9970  58.4930   6.3220 O 1 RES   0.0000
8210 Si  86.9970  58.4930   0.0000 Si 1 RES   0.0000
8211 O  86.9970  59.8680   0.4860 O 1 RES   0.0000
8212 Si  86.9970  61.2440   0.9730 Si 1 RES   0.0000
8213 O  88.1880  57.8050   0.4860 O 1 RES   0.0000
8214 O  85.8060  57.8050   0.4860 O 1 RES   0.0000
8215 O  86.9970  61.2440   2.4310 O 1 RES   0.0000
8216 Si  86.9970  61.2440   3.8900 Si 1 RES   0.0000
8217 O  86.9970  59.8680   4.3770 O 1 RES   0.0000
8218 Si  86.9970  58.4930   4.8630 Si 1 RES   0.0000
8219 O  88.1880  57.8050   4.3770 O 1 RES   0.0000
8220 O  85.8060  57.8050   4.3770 O 1 RES   0.0000
8221 Si  86.9970  58.4930   7.7810 Si 1 RES   0.0000
8222 O  88.1880  57.8050   8.2670 O 1 RES   0.0000
8223 O  85.8060  57.8050   8.2670 O 1 RES   0.0000
8224 O  86.9970  59.8680   8.2670 O 1 RES   0.0000
8225 Si  86.9970  61.2440   8.7530 Si 1 RES   0.0000
8226 O  86.9970  61.2440  10.2120 O 1 RES   0.0000
8227 O  91.7610  58.4930   6.3220 O 1 RES   0.0000
8228 Si  91.7610  58.4930   0.0000 Si 1 RES   0.0000
8229 O  91.7610  59.8680   0.4860 O 1 RES   0.0000
8230 Si  91.7610  61.2440   0.9730 Si 1 RES   0.0000
8231 O  92.9530  57.8050   0.4860 O 1 RES   0.0000
8232 O  90.5700  57.8050   0.4860 O 1 RES   0.0000
8233 O  91.7610  61.2440   2.4310 O 1 RES   0.0000
8234 Si  91.7610  61.2440   3.8900 Si 1 RES   0.0000
8235 O  91.7610  59.8680   4.3770 O 1 RES   0.0000
8236 Si  91.7610  58.4930   4.8630 Si 1 RES   0.0000
8237 O  92.9530  57.8050   4.3770 O 1 RES   0.0000
8238 O  90.5700  57.8050   4.3770 O 1 RES   0.0000
8239 Si  91.7610  58.4930   7.7810 Si 1 RES   0.0000
8240 O  92.9530  57.8050   8.2670 O 1 RES   0.0000
8241 O  90.5700  57.8050   8.2670 O 1 RES   0.0000
8242 O  91.7610  59.8680   8.2670 O 1 RES   0.0000
8243 Si  91.7610  61.2440   8.7530 Si 1 RES   0.0000
8244 O  91.7610  61.2440  10.2120 O 1 RES   0.0000
8245 O  89.3790  62.6190   6.3220 O 1 RES   0.0000
8246 Si  89.3790  62.6190   0.0000 Si 1 RES   0.0000
8247 O  89.3790  63.9940   0.4860 O 1 RES   0.0000
8248 Si  89.3790  65.3700   0.9730 Si 1 RES   0.0000
8249 O  90.5700  61.9310   0.4860 O 1 RES   0.0000
8250 O  88.1880  61.9310   0.4860 O 1 RES   0.0000
8251 O  89.3790  65.3700   2.4310 O 1 RES   0.0000
8252 Si  89.3790  65.3700   3.8900 Si 1 RES   0.0000
8253 O  89.3790  63.9940   4.3770 O 1 RES   0.0000
8254 Si  89.3790  62.6190   4.8630 Si 1 RES   0.0000
8255 O  90.5700  61.9310   4.3770 O 1 RES   0.0000
8256 O  88.1880  61.9310   4.3770 O 1 RES   0.0000
8257 Si  89.3790  62.6190   7.7810 Si 1 RES   0.0000
8258 O  90.5700  61.9310   8.2670 O 1 RES   0.0000
8259 O  88.1880  61.9310   8.2670 O 1 RES   0.0000
8260 O  89.3790  63.9940   8.2670 O 1 RES   0.0000
8261 Si  89.3790  65.3700   8.7530 Si 1 RES   0.0000
8262 O  89.3790  65.3700  10.2120 O 1 RES   0.0000
8263 O  94.1440  62.6190   6.3220 O 1 RES   0.0000
8264 Si  94.1440  62.6190   0.0000 Si 1 RES   0.0000
8265 O  94.1440  63.9940   0.4860 O 1 RES   0.0000
8266 Si  94.1440  65.3700   0.9730 Si 1 RES   0.0000
8267 O  47.6460  61.9310   0.4860 O 1 RES   0.0000
8268 O  92.9530  61.9310   0.4860 O 1 RES   0.0000
8269 O  94.1440  65.3700   2.4310 O 1 RES   0.0000
8270 Si  94.1440  65.3700   3.8900 Si 1 RES   0.0000
8271 O  94.1440  63.9940   4.3770 O 1 RES   0.0000
8272 Si  94.1440  62.6190   4.8630 Si 1 RES   0.0000
8273 O  47.6460  61.9310   4.3770 O 1 RES   0.0000
8274 O  92.9530  61.9310   4.3770 O 1 RES   0.0000
8275 Si  94.1440  62.6190   7.7810 Si 1 RES   0.0000
8276 O  47.6460  61.9310   8.2670 O 1 RES   0.0000
8277 O  92.9530  61.9310   8.2670 O 1 RES   0.0000
8278 O  94.1440  63.9940   8.2670 O 1 RES   0.0000
8279 Si  94.1440  65.3700   8.7530 Si 1 RES   0.0000
8280 O  94.1440  65.3700  10.2120 O 1 RES   0.0000
8281 O  48.8800  66.7450   6.3220 O 1 RES   0.0000
8282 Si  48.8800  66.7450   0.0000 Si 1 RES   0.0000
8283 O  48.8800  68.1210   0.4860 O 1 RES   0.0000
8284 Si  48.8800  69.4960   0.9730 Si 1 RES   0.0000
8285 O  50.0710  66.0580   0.4860 O 1 RES   0.0000
8286 O  47.6890  66.0580   0.4860 O 1 RES   0.0000
8287 O  48.8800  69.4960   2.4310 O 1 RES   0.0000
8288 Si  48.8800  69.4960   3.8900 Si 1 RES   0.0000
8289 O  48.8800  68.1210   4.3770 O 1 RES   0.0000
8290 Si  48.8800  66.7450   4.8630 Si 1 RES   0.0000
8291 O  50.0710  66.0580   4.3770 O 1 RES   0.0000
8292 O  47.6890  66.0580   4.3770 O 1 RES   0.0000
8293 Si  48.8800  66.7450   7.7810 Si 1 RES   0.0000
8294 O  50.0710  66.0580   8.2670 O 1 RES   0.0000
8295 O  47.6890  66.0580   8.2670 O 1 RES   0.0000
8296 O  48.8800  68.1210   8.2670 O 1 RES   0.0000
8297 Si  48.8800  69.4960   8.7530 Si 1 RES   0.0000
8298 O  48.8800  69.4960  10.2120 O 1 RES   0.0000
8299 O  53.6450  66.7450   6.3220 O 1 RES   0.0000
8300 Si  53.6450  66.7450   0.0000 Si 1 RES   0.0000
8301 O  53.6450  68.1210   0.4860 O 1 RES   0.0000
8302 Si  53.6450  69.4960   0.9730 Si 1 RES   0.0000
8303 O  54.8360  66.0580   0.4860 O 1 RES   0.0000
8304 O  52.4540  66.0580   0.4860 O 1 RES   0.0000
8305 O  53.6450  69.4960   2.4310 O 1 RES   0.0000
8306 Si  53.6450  69.4960   3.8900 Si 1 RES   0.0000
8307 O  53.6450  68.1210   4.3770 O 1 RES   0.0000
8308 Si  53.6450  66.7450   4.8630 Si 1 RES   0.0000
8309 O  54.8360  66.0580   4.3770 O 1 RES   0.0000
8310 O  52.4540  66.0580   4.3770 O 1 RES   0.0000
8311 Si  53.6450  66.7450   7.7810 Si 1 RES   0.0000
8312 O  54.8360  66.0580   8.2670 O 1 RES   0.0000
8313 O  52.4540  66.0580   8.2670 O 1 RES   0.0000
8314 O  53.6450  68.1210   8.2670 O 1 RES   0.0000
8315 Si  53.6450  69.4960   8.7530 Si 1 RES   0.0000
8316 O  53.6450  69.4960  10.2120 O 1 RES   0.0000
8317 O  51.2620  70.8720   6.3220 O 1 RES   0.0000
8318 Si  51.2620  70.8720   0.0000 Si 1 RES   0.0000
8319 O  51.2620  72.2470   0.4860 O 1 RES   0.0000
8320 Si  51.2620  73.6220   0.9730 Si 1 RES   0.0000
8321 O  52.4540  70.1840   0.4860 O 1 RES   0.0000
8322 O  50.0710  70.1840   0.4860 O 1 RES   0.0000
8323 O  51.2620  73.6220   2.4310 O 1 RES   0.0000
8324 Si  51.2620  73.6220   3.8900 Si 1 RES   0.0000
8325 O  51.2620  72.2470   4.3770 O 1 RES   0.0000
8326 Si  51.2620  70.8720   4.8630 Si 1 RES   0.0000
8327 O  52.4540  70.1840   4.3770 O 1 RES   0.0000
8328 O  50.0710  70.1840   4.3770 O 1 RES   0.0000
8329 Si  51.2620  70.8720   7.7810 Si 1 RES   0.0000
8330 O  52.4540  70.1840   8.2670 O 1 RES   0.0000
8331 O  50.0710  70.1840   8.2670 O 1 RES   0.0000
8332 O  51.2620  72.2470   8.2670 O 1 RES   0.0000
8333 Si  51.2620  73.6220   8.7530 Si 1 RES   0.0000
8334 O  51.2620  73.6220  10.2120 O 1 RES   0.0000
8335 O  56.0270  70.8720   6.3220 O 1 RES   0.0000
8336 Si  56.0270  70.8720   0.0000 Si 1 RES   0.0000
8337 O  56.0270  72.2470   0.4860 O 1 RES   0.0000
8338 Si  56.0270  73.6220   0.9730 Si 1 RES   0.0000
8339 O  57.2180  70.1840   0.4860 O 1 RES   0.0000
8340 O  54.8360  70.1840   0.4860 O 1 RES   0.0000
8341 O  56.0270  73.6220   2.4310 O 1 RES   0.0000
8342 Si  56.0270  73.6220   3.8900 Si 1 RES   0.0000
8343 O  56.0270  72.2470   4.3770 O 1 RES   0.0000
8344 Si  56.0270  70.8720   4.8630 Si 1 RES   0.0000
8345 O  57.2180  70.1840   4.3770 O 1 RES   0.0000
8346 O  54.8360  70.1840   4.3770 O 1 RES   0.0000
8347 Si  56.0270  70.8720   7.7810 Si 1 RES   0.0000
8348 O  57.2180  70.1840   8.2670 O 1 RES   0.0000
8349 O  54.8360  70.1840   8.2670 O 1 RES   0.0000
8350 O  56.0270  72.2470   8.2670 O 1 RES   0.0000
8351 Si  56.0270  73.6220   8.7530 Si 1 RES   0.0000
8352 O  56.0270  73.6220  10.2120 O 1 RES   0.0000
8353 O  58.4090  66.7450   6.3220 O 1 RES   0.0000
8354 Si  58.4090  66.7450   0.0000 Si 1 RES   0.0000
8355 O  58.4090  68.1210   0.4860 O 1 RES   0.0000
8356 Si  58.4090  69.4960   0.9730 Si 1 RES   0.0000
8357 O  59.6010  66.0580   0.4860 O 1 RES   0.0000
8358 O  57.2180  66.0580   0.4860 O 1 RES   0.0000
8359 O  58.4090  69.4960   2.4310 O 1 RES   0.0000
8360 Si  58.4090  69.4960   3.8900 Si 1 RES   0.0000
8361 O  58.4090  68.1210   4.3770 O 1 RES   0.0000
8362 Si  58.4090  66.7450   4.8630 Si 1 RES   0.0000
8363 O  59.6010  66.0580   4.3770 O 1 RES   0.0000
8364 O  57.2180  66.0580   4.3770 O 1 RES   0.0000
8365 Si  58.4090  66.7450   7.7810 Si 1 RES   0.0000
8366 O  59.6010  66.0580   8.2670 O 1 RES   0.0000
8367 O  57.2180  66.0580   8.2670 O 1 RES   0.0000
8368 O  58.4090  68.1210   8.2670 O 1 RES   0.0000
8369 Si  58.4090  69.4960   8.7530 Si 1 RES   0.0000
8370 O  58.4090  69.4960  10.2120 O 1 RES   0.0000
8371 O  63.1740  66.7450   6.3220 O 1 RES   0.0000
8372 Si  63.1740  66.7450   0.0000 Si 1 RES   0.0000
8373 O  63.1740  68.1210   0.4860 O 1 RES   0.0000
8374 Si  63.1740  69.4960   0.9730 Si 1 RES   0.0000
8375 O  64.3650  66.0580   0.4860 O 1 RES   0.0000
8376 O  61.9830  66.0580   0.4860 O 1 RES   0.0000
8377 O  63.1740  69.4960   2.4310 O 1 RES   0.0000
8378 Si  63.1740  69.4960   3.8900 Si 1 RES   0.0000
8379 O  63.1740  68.1210   4.3770 O 1 RES   0.0000
8380 Si  63.1740  66.7450   4.8630 Si 1 RES   0.0000
8381 O  64.3650  66.0580   4.3770 O 1 RES   0.0000
8382 O  61.9830  66.0580   4.3770 O 1 RES   0.0000
8383 Si  63.1740  66.7450   7.7810 Si 1 RES   0.0000
8384 O  64.3650  66.0580   8.2670 O 1 RES   0.0000
8385 O  61.9830  66.0580   8.2670 O 1 RES   0.0000
8386 O  63.1740  68.1210   8.2670 O 1 RES   0.0000
8387 Si  63.1740  69.4960   8.7530 Si 1 RES   0.0000
8388 O  63.1740  69.4960  10.2120 O 1 RES   0.0000
8389 O  60.7920  70.8720   6.3220 O 1 RES   0.0000
8390 Si  60.7920  70.8720   0.0000 Si 1 RES   0.0000
8391 O  60.7920  72.2470   0.4860 O 1 RES   0.0000
8392 Si  60.7920  73.6220   0.9730 Si 1 RES   0.0000
8393 O  61.9830  70.1840   0.4860 O 1 RES   0.0000
8394 O  59.6010  70.1840   0.4860 O 1 RES   0.0000
8395 O  60.7920  73.6220   2.4310 O 1 RES   0.0000
8396 Si  60.7920  73.6220   3.8900 Si 1 RES   0.0000
8397 O  60.7920  72.2470   4.3770 O 1 RES   0.0000
8398 Si  60.7920  70.8720   4.8630 Si 1 RES   0.0000
8399 O  61.9830  70.1840   4.3770 O 1 RES   0.0000
8400 O  59.6010  70.1840   4.3770 O 1 RES   0.0000
8401 Si  60.7920  70.8720   7.7810 Si 1 RES   0.0000
8402 O  61.9830  70.1840   8.2670 O 1 RES   0.0000
8403 O  59.6010  70.1840   8.2670 O 1 RES   0.0000
8404 O  60.7920  72.2470   8.2670 O 1 RES   0.0000
8405 Si  60.7920  73.6220   8.7530 Si 1 RES   0.0000
8406 O  60.7920  73.6220  10.2120 O 1 RES   0.0000
8407 O  65.5560  70.8720   6.3220 O 1 RES   0.0000
8408 Si  65.5560  70.8720   0.0000 Si 1 RES   0.0000
8409 O  65.5560  72.2470   0.4860 O 1 RES   0.0000
8410 Si  65.5560  73.6220   0.9730 Si 1 RES   0.0000
8411 O  66.7470  70.1840   0.4860 O 1 RES   0.0000
8412 O  64.3650  70.1840   0.4860 O 1 RES   0.0000
8413 O  65.5560  73.6220   2.4310 O 1 RES   0.0000
8414 Si  65.5560  73.6220   3.8900 Si 1 RES   0.0000
8415 O  65.5560  72.2470   4.3770 O 1 RES   0.0000
8416 Si  65.5560  70.8720   4.8630 Si 1 RES   0.0000
8417 O  66.7470  70.1840   4.3770 O 1 RES   0.0000
8418 O  64.3650  70.1840   4.3770 O 1 RES   0.0000
8419 Si  65.5560  70.8720   7.7810 Si 1 RES   0.0000
8420 O  66.7470  70.1840   8.2670 O 1 RES   0.0000
8421 O  64.3650  70.1840   8.2670 O 1 RES   0.0000
8422 O  65.5560  72.2470   8.2670 O 1 RES   0.0000
8423 Si  65.5560  73.6220   8.7530 Si 1 RES   0.0000
8424 O  65.5560  73.6220  10.2120 O 1 RES   0.0000
8425 O  67.9390  66.7450   6.3220 O 1 RES   0.0000
8426 Si  67.9390  66.7450   0.0000 Si 1 RES   0.0000
8427 O  67.9390  68.1210   0.4860 O 1 RES   0.0000
8428 Si  67.9390  69.4960   0.9730 Si 1 RES   0.0000
8429 O  69.1300  66.0580   0.4860 O 1 RES   0.0000
8430 O  66.7470  66.0580   0.4860 O 1 RES   0.0000
8431 O  67.9390  69.4960   2.4310 O 1 RES   0.0000
8432 Si  67.9390  69.4960   3.8900 Si 1 RES   0.0000
8433 O  67.9390  68.1210   4.3770 O 1 RES   0.0000
8434 Si  67.9390  66.7450   4.8630 Si 1 RES   0.0000
8435 O  69.1300  66.0580   4.3770 O 1 RES   0.0000
8436 O  66.7470  66.0580   4.3770 O 1 RES   0.0000
8437 Si  67.9390  66.7450   7.7810 Si 1 RES   0.0000
8438 O  69.1300  66.0580   8.2670 O 1 RES   0.0000
8439 O  66.7470  66.0580   8.2670 O 1 RES   0.0000
8440 O  67.9390  68.1210   8.2670 O 1 RES   0.0000
8441 Si  67.9390  69.4960   8.7530 Si 1 RES   0.0000
8442 O  67.9390  69.4960  10.2120 O 1 RES   0.0000
8443 O  72.7030  66.7450   6.3220 O 1 RES   0.0000
8444 Si  72.7030  66.7450   0.0000 Si 1 RES   0.0000
8445 O  72.7030  68.1210   0.4860 O 1 RES   0.0000
8446 Si  72.7030  69.4960   0.9730 Si 1 RES   0.0000
8447 O  73.8940  66.0580   0.4860 O 1 RES   0.0000
8448 O  71.5120  66.0580   0.4860 O 1 RES   0.0000
8449 O  72.7030  69.4960   2.4310 O 1 RES   0.0000
8450 Si  72.7030  69.4960   3.8900 Si 1 RES   0.0000
8451 O  72.7030  68.1210   4.3770 O 1 RES   0.0000
8452 Si  72.7030  66.7450   4.8630 Si 1 RES   0.0000
8453 O  73.8940  66.0580   4.3770 O 1 RES   0.0000
8454 O  71.5120  66.0580   4.3770 O 1 RES   0.0000
8455 Si  72.7030  66.7450   7.7810 Si 1 RES   0.0000
8456 O  73.8940  66.0580   8.2670 O 1 RES   0.0000
8457 O  71.5120  66.0580   8.2670 O 1 RES   0.0000
8458 O  72.7030  68.1210   8.2670 O 1 RES   0.0000
8459 Si  72.7030  69.4960   8.7530 Si 1 RES   0.0000
8460 O  72.7030  69.4960  10.2120 O 1 RES   0.0000
8461 O  70.3210  70.8720   6.3220 O 1 RES   0.0000
8462 Si  70.3210  70.8720   0.0000 Si 1 RES   0.0000
8463 O  70.3210  72.2470   0.4860 O 1 RES   0.0000
8464 Si  70.3210  73.6220   0.9730 Si 1 RES   0.0000
8465 O  71.5120  70.1840   0.4860 O 1 RES   0.0000
8466 O  69.1300  70.1840   0.4860 O 1 RES   0.0000
8467 O  70.3210  73.6220   2.4310 O 1 RES   0.0000
8468 Si  70.3210  73.6220   3.8900 Si 1 RES   0.0000
8469 O  70.3210  72.2470   4.3770 O 1 RES   0.0000
8470 Si  70.3210  70.8720   4.8630 Si 1 RES   0.0000
8471 O  71.5120  70.1840   4.3770 O 1 RES   0.0000
8472 O  69.1300  70.1840   4.3770 O 1 RES   0.0000
8473 Si  70.3210  70.8720   7.7810 Si 1 RES   0.0000
8474 O  71.5120  70.1840   8.2670 O 1 RES   0.0000
8475 O  69.1300  70.1840   8.2670 O 1 RES   0.0000
8476 O  70.3210  72.2470   8.2670 O 1 RES   0.0000
8477 Si  70.3210  73.6220   8.7530 Si 1 RES   0.0000
8478 O  70.3210  73.6220  10.2120 O 1 RES   0.0000
8479 O  75.0850  70.8720   6.3220 O 1 RES   0.0000
8480 Si  75.0850  70.8720   0.0000 Si 1 RES   0.0000
8481 O  75.0850  72.2470   0.4860 O 1 RES   0.0000
8482 Si  75.0850  73.6220   0.9730 Si 1 RES   0.0000
8483 O  76.2760  70.1840   0.4860 O 1 RES   0.0000
8484 O  73.8940  70.1840   0.4860 O 1 RES   0.0000
8485 O  75.0850  73.6220   2.4310 O 1 RES   0.0000
8486 Si  75.0850  73.6220   3.8900 Si 1 RES   0.0000
8487 O  75.0850  72.2470   4.3770 O 1 RES   0.0000
8488 Si  75.0850  70.8720   4.8630 Si 1 RES   0.0000
8489 O  76.2760  70.1840   4.3770 O 1 RES   0.0000
8490 O  73.8940  70.1840   4.3770 O 1 RES   0.0000
8491 Si  75.0850  70.8720   7.7810 Si 1 RES   0.0000
8492 O  76.2760  70.1840   8.2670 O 1 RES   0.0000
8493 O  73.8940  70.1840   8.2670 O 1 RES   0.0000
8494 O  75.0850  72.2470   8.2670 O 1 RES   0.0000
8495 Si  75.0850  73.6220   8.7530 Si 1 RES   0.0000
8496 O  75.0850  73.6220  10.2120 O 1 RES   0.0000
8497 O  77.4680  66.7450   6.3220 O 1 RES   0.0000
8498 Si  77.4680  66.7450   0.0000 Si 1 RES   0.0000
8499 O  77.4680  68.1210   0.4860 O 1 RES   0.0000
8500 Si  77.4680  69.4960   0.9730 Si 1 RES   0.0000
8501 O  78.6590  66.0580   0.4860 O 1 RES   0.0000
8502 O  76.2760  66.0580   0.4860 O 1 RES   0.0000
8503 O  77.4680  69.4960   2.4310 O 1 RES   0.0000
8504 Si  77.4680  69.4960   3.8900 Si 1 RES   0.0000
8505 O  77.4680  68.1210   4.3770 O 1 RES   0.0000
8506 Si  77.4680  66.7450   4.8630 Si 1 RES   0.0000
8507 O  78.6590  66.0580   4.3770 O 1 RES   0.0000
8508 O  76.2760  66.0580   4.3770 O 1 RES   0.0000
8509 Si  77.4680  66.7450   7.7810 Si 1 RES   0.0000
8510 O  78.6590  66.0580   8.2670 O 1 RES   0.0000
8511 O  76.2760  66.0580   8.2670 O 1 RES   0.0000
8512 O  77.4680  68.1210   8.2670 O 1 RES   0.0000
8513 Si  77.4680  69.4960   8.7530 Si 1 RES   0.0000
8514 O  77.4680  69.4960  10.2120 O 1 RES   0.0000
8515 O  82.2320  66.7450   6.3220 O 1 RES   0.0000
8516 Si  82.2320  66.7450   0.0000 Si 1 RES   0.0000
8517 O  82.2320  68.1210   0.4860 O 1 RES   0.0000
8518 Si  82.2320  69.4960   0.9730 Si 1 RES   0.0000
8519 O  83.4230  66.0580   0.4860 O 1 RES   0.0000
8520 O  81.0410  66.0580   0.4860 O 1 RES   0.0000
8521 O  82.2320  69.4960   2.4310 O 1 RES   0.0000
8522 Si  82.2320  69.4960   3.8900 Si 1 RES   0.0000
8523 O  82.2320  68.1210   4.3770 O 1 RES   0.0000
8524 Si  82.2320  66.7450   4.8630 Si 1 RES   0.0000
8525 O  83.4230  66.0580   4.3770 O 1 RES   0.0000
8526 O  81.0410  66.0580   4.3770 O 1 RES   0.0000
8527 Si  82.2320  66.7450   7.7810 Si 1 RES   0.0000
8528 O  83.4230  66.0580   8.2670 O 1 RES   0.0000
8529 O  81.0410  66.0580   8.2670 O 1 RES   0.0000
8530 O  82.2320  68.1210   8.2670 O 1 RES   0.0000
8531 Si  82.2320  69.4960   8.7530 Si 1 RES   0.0000
8532 O  82.2320  69.4960  10.2120 O 1 RES   0.0000
8533 O  79.8500  70.8720   6.3220 O 1 RES   0.0000
8534 Si  79.8500  70.8720   0.0000 Si 1 RES   0.0000
8535 O  79.8500  72.2470   0.4860 O 1 RES   0.0000
8536 Si  79.8500  73.6220   0.9730 Si 1 RES   0.0000
8537 O  81.0410  70.1840   0.4860 O 1 RES   0.0000
8538 O  78.6590  70.1840   0.4860 O 1 RES   0.0000
8539 O  79.8500  73.6220   2.4310 O 1 RES   0.0000
8540 Si  79.8500  73.6220   3.8900 Si 1 RES   0.0000
8541 O  79.8500  72.2470   4.3770 O 1 RES   0.0000
8542 Si  79.8500  70.8720   4.8630 Si 1 RES   0.0000
8543 O  81.0410  70.1840   4.3770 O 1 RES   0.0000
8544 O  78.6590  70.1840   4.3770 O 1 RES   0.0000
8545 Si  79.8500  70.8720   7.7810 Si 1 RES   0.0000
8546 O  81.0410  70.1840   8.2670 O 1 RES   0.0000
8547 O  78.6590  70.1840   8.2670 O 1 RES   0.0000
8548 O  79.8500  72.2470   8.2670 O 1 RES   0.0000
8549 Si  79.8500  73.6220   8.7530 Si 1 RES   0.0000
8550 O  79.8500  73.6220  10.2120 O 1 RES   0.0000
8551 O  84.6140  70.8720   6.3220 O 1 RES   0.0000
8552 Si  84.6140  70.8720   0.0000 Si 1 RES   0.0000
8553 O  84.6140  72.2470   0.4860 O 1 RES   0.0000
8554 Si  84.6140  73.6220   0.9730 Si 1 RES   0.0000
8555 O  85.8060  70.1840   0.4860 O 1 RES   0.0000
8556 O  83.4230  70.1840   0.4860 O 1 RES   0.0000
8557 O  84.6140  73.6220   2.4310 O 1 RES   0.0000
8558 Si  84.6140  73.6220   3.8900 Si 1 RES   0.0000
8559 O  84.6140  72.2470   4.3770 O 1 RES   0.0000
8560 Si  84.6140  70.8720   4.8630 Si 1 RES   0.0000
8561 O  85.8060  70.1840   4.3770 O 1 RES   0.0000
8562 O  83.4230  70.1840   4.3770 O 1 RES   0.0000
8563 Si  84.6140  70.8720   7.7810 Si 1 RES   0.0000
8564 O  85.8060  70.1840   8.2670 O 1 RES   0.0000
8565 O  83.4230  70.1840   8.2670 O 1 RES   0.0000
8566 O  84.6140  72.2470   8.2670 O 1 RES   0.0000
8567 Si  84.6140  73.6220   8.7530 Si 1 RES   0.0000
8568 O  84.6140  73.6220  10.2120 O 1 RES   0.0000
8569 O  86.9970  66.7450   6.3220 O 1 RES   0.0000
8570 Si  86.9970  66.7450   0.0000 Si 1 RES   0.0000
8571 O  86.9970  68.1210   0.4860 O 1 RES   0.0000
8572 Si  86.9970  69.4960   0.9730 Si 1 RES   0.0000
8573 O  88.1880  66.0580   0.4860 O 1 RES   0.0000
8574 O  85.8060  66.0580   0.4860 O 1 RES   0.0000
8575 O  86.9970  69.4960   2.4310 O 1 RES   0.0000
8576 Si  86.9970  69.4960   3.8900 Si 1 RES   0.0000
8577 O  86.9970  68.1210   4.3770 O 1 RES   0.0000
8578 Si  86.9970  66.7450   4.8630 Si 1 RES   0.0000
8579 O  88.1880  66.0580   4.3770 O 1 RES   0.0000
8580 O  85.8060  66.0580   4.3770 O 1 RES   0.0000
8581 Si  86.9970  66.7450   7.7810 Si 1 RES   0.0000
8582 O  88.1880  66.0580   8.2670 O 1 RES   0.0000
8583 O  85.8060  66.0580   8.2670 O 1 RES   0.0000
8584 O  86.9970  68.1210   8.2670 O 1 RES   0.0000
8585 Si  86.9970  69.4960   8.7530 Si 1 RES   0.0000
8586 O  86.9970  69.4960  10.2120 O 1 RES   0.0000
8587 O  91.7610  66.7450   6.3220 O 1 RES   0.0000
8588 Si  91.7610  66.7450   0.0000 Si 1 RES   0.0000
8589 O  91.7610  68.1210   0.4860 O 1 RES   0.0000
8590 Si  91.7610  69.4960   0.9730 Si 1 RES   0.0000
8591 O  92.9530  66.0580   0.4860 O 1 RES   0.0000
8592 O  90.5700  66.0580   0.4860 O 1 RES   0.0000
8593 O  91.7610  69.4960   2.4310 O 1 RES   0.0000
8594 Si  91.7610  69.4960   3.8900 Si 1 RES   0.0000
8595 O  91.7610  68.1210   4.3770 O 1 RES   0.0000
8596 Si  91.7610  66.7450   4.8630 Si 1 RES   0.0000
8597 O  92.9530  66.0580   4.3770 O 1 RES   0.0000
8598 O  90.5700  66.0580   4.3770 O 1 RES   0.0000
8599 Si  91.7610  66.7450   7.7810 Si 1 RES   0.0000
8600 O  92.9530  66.0580   8.2670 O 1 RES   0.0000
8601 O  90.5700  66.0580   8.2670 O 1 RES   0.0000
8602 O  91.7610  68.1210   8.2670 O 1 RES   0.0000
8603 Si  91.7610  69.4960   8.7530 Si 1 RES   0.0000
8604 O  91.7610  69.4960  10.2120 O 1 RES   0.0000
8605 O  89.3790  70.8720   6.3220 O 1 RES   0.0000
8606 Si  89.3790  70.8720   0.0000 Si 1 RES   0.0000
8607 O  89.3790  72.2470   0.4860 O 1 RES   0.0000
8608 Si  89.3790  73.6220   0.9730 Si 1 RES   0.0000
8609 O  90.5700  70.1840   0.4860 O 1 RES   0.0000
8610 O  88.1880  70.1840   0.4860 O 1 RES   0.0000
8611 O  89.3790  73.6220   2.4310 O 1 RES   0.0000
8612 Si  89.3790  73.6220   3.8900 Si 1 RES   0.0000
8613 O  89.3790  72.2470   4.3770 O 1 RES   0.0000
8614 Si  89.3790  70.8720   4.8630 Si 1 RES   0.0000
8615 O  90.5700  70.1840   4.3770 O 1 RES   0.0000
8616 O  88.1880  70.1840   4.3770 O 1 RES   0.0000
8617 Si  89.3790  70.8720   7.7810 Si 1 RES   0.0000
8618 O  90.5700  70.1840   8.2670 O 1 RES   0.0000
8619 O  88.1880  70.1840   8.2670 O 1 RES   0.0000
8620 O  89.3790  72.2470   8.2670 O 1 RES   0.0000
8621 Si  89.3790  73.6220   8.7530 Si 1 RES   0.0000
8622 O  89.3790  73.6220  10.2120 O 1 RES   0.0000
8623 O  94.1440  70.8720   6.3220 O 1 RES   0.0000
8624 Si  94.1440  70.8720   0.0000 Si 1 RES   0.0000
8625 O  94.1440  72.2470   0.4860 O 1 RES   0.0000
8626 Si  94.1440  73.6220   0.9730 Si 1 RES   0.0000
8627 O  47.6460  70.1840   0.4860 O 1 RES   0.0000
8628 O  92.9530  70.1840   0.4860 O 1 RES   0.0000
8629 O  94.1440  73.6220   2.4310 O 1 RES   0.0000
8630 Si  94.1440  73.6220   3.8900 Si 1 RES   0.0000
8631 O  94.1440  72.2470   4.3770 O 1 RES   0.0000
8632 Si  94.1440  70.8720   4.8630 Si 1 RES   0.0000
8633 O  47.6460  70.1840   4.3770 O 1 RES   0.0000
8634 O  92.9530  70.1840   4.3770 O 1 RES   0.0000
8635 Si  94.1440  70.8720   7.7810 Si 1 RES   0.0000
8636 O  47.6460  70.1840   8.2670 O 1 RES   0.0000
8637 O  92.9530  70.1840   8.2670 O 1 RES   0.0000
8638 O  94.1440  72.2470   8.2670 O 1 RES   0.0000
8639 Si  94.1440  73.6220   8.7530 Si 1 RES   0.0000
8640 O  94.1440  73.6220  10.2120 O 1 RES   0.0000
8641 O  48.8800  74.9980   6.3220 O 1 RES   0.0000
8642 Si  48.8800  74.9980   0.0000 Si 1 RES   0.0000
8643 O  48.8800  76.3730   0.4860 O 1 RES   0.0000
8644 Si  48.8800  77.7490   0.9730 Si 1 RES   0.0000
8645 O  50.0710  74.3100   0.4860 O 1 RES   0.0000
8646 O  47.6890  74.3100   0.4860 O 1 RES   0.0000
8647 O  48.8800  77.7490   2.4310 O 1 RES   0.0000
8648 Si  48.8800  77.7490   3.8900 Si 1 RES   0.0000
8649 O  48.8800  76.3730   4.3770 O 1 RES   0.0000
8650 Si  48.8800  74.9980   4.8630 Si 1 RES   0.0000
8651 O  50.0710  74.3100   4.3770 O 1 RES   0.0000
8652 O  47.6890  74.3100   4.3770 O 1 RES   0.0000
8653 Si  48.8800  74.9980   7.7810 Si 1 RES   0.0000
8654 O  50.0710  74.3100   8.2670 O 1 RES   0.0000
8655 O  47.6890  74.3100   8.2670 O 1 RES   0.0000
8656 O  48.8800  76.3730   8.2670 O 1 RES   0.0000
8657 Si  48.8800  77.7490   8.7530 Si 1 RES   0.0000
8658 O  48.8800  77.7490  10.2120 O 1 RES   0.0000
8659 O  53.6450  74.9980   6.3220 O 1 RES   0.0000
8660 Si  53.6450  74.9980   0.0000 Si 1 RES   0.0000
8661 O  53.6450  76.3730   0.4860 O 1 RES   0.0000
8662 Si  53.6450  77.7490   0.9730 Si 1 RES   0.0000
8663 O  54.8360  74.3100   0.4860 O 1 RES   0.0000
8664 O  52.4540  74.3100   0.4860 O 1 RES   0.0000
8665 O  53.6450  77.7490   2.4310 O 1 RES   0.0000
8666 Si  53.6450  77.7490   3.8900 Si 1 RES   0.0000
8667 O  53.6450  76.3730   4.3770 O 1 RES   0.0000
8668 Si  53.6450  74.9980   4.8630 Si 1 RES   0.0000
8669 O  54.8360  74.3100   4.3770 O 1 RES   0.0000
8670 O  52.4540  74.3100   4.3770 O 1 RES   0.0000
8671 Si  53.6450  74.9980   7.7810 Si 1 RES   0.0000
8672 O  54.8360  74.3100   8.2670 O 1 RES   0.0000
8673 O  52.4540  74.3100   8.2670 O 1 RES   0.0000
8674 O  53.6450  76.3730   8.2670 O 1 RES   0.0000
8675 Si  53.6450  77.7490   8.7530 Si 1 RES   0.0000
8676 O  53.6450  77.7490  10.2120 O 1 RES   0.0000
8677 O  51.2620  79.1240   6.3220 O 1 RES   0.0000
8678 Si  51.2620  79.1240   0.0000 Si 1 RES   0.0000
8679 O  51.2620  80.4990   0.4860 O 1 RES   0.0000
8680 Si  51.2620  40.5750   0.9730 Si 1 RES   0.0000
8681 O  52.4540  78.4360   0.4860 O 1 RES   0.0000
8682 O  50.0710  78.4360   0.4860 O 1 RES   0.0000
8683 O  51.2620  40.5750   2.4310 O 1 RES   0.0000
8684 Si  51.2620  40.5750   3.8900 Si 1 RES   0.0000
8685 O  51.2620  80.4990   4.3770 O 1 RES   0.0000
8686 Si  51.2620  79.1240   4.8630 Si 1 RES   0.0000
8687 O  52.4540  78.4360   4.3770 O 1 RES   0.0000
8688 O  50.0710  78.4360   4.3770 O 1 RES   0.0000
8689 Si  51.2620  79.1240   7.7810 Si 1 RES   0.0000
8690 O  52.4540  78.4360   8.2670 O 1 RES   0.0000
8691 O  50.0710  78.4360   8.2670 O 1 RES   0.0000
8692 O  51.2620  80.4990   8.2670 O 1 RES   0.0000
8693 Si  51.2620  40.5750   8.7530 Si 1 RES   0.0000
8694 O  51.2620  40.5750  10.2120 O 1 RES   0.0000
8695 O  56.0270  79.1240   6.3220 O 1 RES   0.0000
8696 Si  56.0270  79.1240   0.0000 Si 1 RES   0.0000
8697 O  56.0270  80.4990   0.4860 O 1 RES   0.0000
8698 Si  56.0270  40.5750   0.9730 Si 1 RES   0.0000
8699 O  57.2180  78.4360   0.4860 O 1 RES   0.0000
8700 O  54.8360  78.4360   0.4860 O 1 RES   0.0000
8701 O  56.0270  40.5750   2.4310 O 1 RES   0.0000
8702 Si  56.0270  40.5750   3.8900 Si 1 RES   0.0000
8703 O  56.0270  80.4990   4.3770 O 1 RES   0.0000
8704 Si  56.0270  79.1240   4.8630 Si 1 RES   0.0000
8705 O  57.2180  78.4360   4.3770 O 1 RES   0.0000
8706 O  54.8360  78.4360   4.3770 O 1 RES   0.0000
8707 Si  56.0270  79.1240   7.7810 Si 1 RES   0.0000
8708 O  57.2180  78.4360   8.2670 O 1 RES   0.0000
8709 O  54.8360  78.4360   8.2670 O 1 RES   0.0000
8710 O  56.0270  80.4990   8.2670 O 1 RES   0.0000
8711 Si  56.0270  40.5750   8.7530 Si 1 RES   0.0000
8712 O  56.0270  40.5750  10.2120 O 1 RES   0.0000
8713 O  58.4090  74.9980   6.3220 O 1 RES   0.0000
8714 Si  58.4090  74.9980   0.0000 Si 1 RES   0.0000
8715 O  58.4090  76.3730   0.4860 O 1 RES   0.0000
8716 Si  58.4090  77.7490   0.9730 Si 1 RES   0.0000
8717 O  59.6010  74.3100   0.4860 O 1 RES   0.0000
8718 O  57.2180  74.3100   0.4860 O 1 RES   0.0000
8719 O  58.4090  77.7490   2.4310 O 1 RES   0.0000
8720 Si  58.4090  77.7490   3.8900 Si 1 RES   0.0000
8721 O  58.4090  76.3730   4.3770 O 1 RES   0.0000
8722 Si  58.4090  74.9980   4.8630 Si 1 RES   0.0000
8723 O  59.6010  74.3100   4.3770 O 1 RES   0.0000
8724 O  57.2180  74.3100   4.3770 O 1 RES   0.0000
8725 Si  58.4090  74.9980   7.7810 Si 1 RES   0.0000
8726 O  59.6010  74.3100   8.2670 O 1 RES   0.0000
8727 O  57.2180  74.3100   8.2670 O 1 RES   0.0000
8728 O  58.4090  76.3730   8.2670 O 1 RES   0.0000
8729 Si  58.4090  77.7490   8.7530 Si 1 RES   0.0000
8730 O  58.4090  77.7490  10.2120 O 1 RES   0.0000
8731 O  63.1740  74.9980   6.3220 O 1 RES   0.0000
8732 Si  63.1740  74.9980   0.0000 Si 1 RES   0.0000
8733 O  63.1740  76.3730   0.4860 O 1 RES   0.0000
8734 Si  63.1740  77.7490   0.9730 Si 1 RES   0.0000
8735 O  64.3650  74.3100   0.4860 O 1 RES   0.0000
8736 O  61.9830  74.3100   0.4860 O 1 RES   0.0000
8737 O  63.1740  77.7490   2.4310 O 1 RES   0.0000
8738 Si  63.1740  77.7490   3.8900 Si 1 RES   0.0000
8739 O  63.1740  76.3730   4.3770 O 1 RES   0.0000
8740 Si  63.1740  74.9980   4.8630 Si 1 RES   0.0000
8741 O  64.3650  74.3100   4.3770 O 1 RES   0.0000
8742 O  61.9830  74.3100   4.3770 O 1 RES   0.0000
8743 Si  63.1740  74.9980   7.7810 Si 1 RES   0.0000
8744 O  64.3650  74.3100   8.2670 O 1 RES   0.0000
8745 O  61.9830  74.3100   8.2670 O 1 RES   0.0000
8746 O  63.1740  76.3730   8.2670 O 1 RES   0.0000
8747 Si  63.1740  77.7490   8.7530 Si 1 RES   0.0000
8748 O  63.1740  77.7490  10.2120 O 1 RES   0.0000
8749 O  60.7920  79.1240   6.3220 O 1 RES   0.0000
8750 Si  60.7920  79.1240   0.0000 Si 1 RES   0.0000
8751 O  60.7920  80.4990   0.4860 O 1 RES   0.0000
8752 Si  60.7920  40.5750   0.9730 Si 1 RES   0.0000
8753 O  61.9830  78.4360   0.4860 O 1 RES   0.0000
8754 O  59.6010  78.4360   0.4860 O 1 RES   0.0000
8755 O  60.7920  40.5750   2.4310 O 1 RES   0.0000
8756 Si  60.7920  40.5750   3.8900 Si 1 RES   0.0000
8757 O  60.7920  80.4990   4.3770 O 1 RES   0.0000
8758 Si  60.7920  79.1240   4.8630 Si 1 RES   0.0000
8759 O  61.9830  78.4360   4.3770 O 1 RES   0.0000
8760 O  59.6010  78.4360   4.3770 O 1 RES   0.0000
8761 Si  60.7920  79.1240   7.7810 Si 1 RES   0.0000
8762 O  61.9830  78.4360   8.2670 O 1 RES   0.0000
8763 O  59.6010  78.4360   8.2670 O 1 RES   0.0000
8764 O  60.7920  80.4990   8.2670 O 1 RES   0.0000
8765 Si  60.7920  40.5750   8.7530 Si 1 RES   0.0000
8766 O  60.7920  40.5750  10.2120 O 1 RES   0.0000
8767 O  65.5560  79.1240   6.3220 O 1 RES   0.0000
8768 Si  65.5560  79.1240   0.0000 Si 1 RES   0.0000
8769 O  65.5560  80.4990   0.4860 O 1 RES   0.0000
8770 Si  65.5560  40.5750   0.9730 Si 1 RES   0.0000
8771 O  66.7470  78.4360   0.4860 O 1 RES   0.0000
8772 O  64.3650  78.4360   0.4860 O 1 RES   0.0000
8773 O  65.5560  40.5750   2.4310 O 1 RES   0.0000
8774 Si  65.5560  40.5750   3.8900 Si 1 RES   0.0000
8775 O  65.5560  80.4990   4.3770 O 1 RES   0.0000
8776 Si  65.5560  79.1240   4.8630 Si 1 RES   0.0000
8777 O  66.7470  78.4360   4.3770 O 1 RES   0.0000
8778 O  64.3650  78.4360   4.3770 O 1 RES   0.0000
8779 Si  65.5560  79.1240   7.7810 Si 1 RES   0.0000
8780 O  66.7470  78.4360   8.2670 O 1 RES   0.0000
8781 O  64.3650  78.4360   8.2670 O 1 RES   0.0000
8782 O  65.5560  80.4990   8.2670 O 1 RES   0.0000
8783 Si  65.5560  40.5750   8.7530 Si 1 RES   0.0000
8784 O  65.5560  40.5750  10.2120 O 1 RES   0.0000
8785 O  67.9390  74.9980   6.3220 O 1 RES   0.0000
8786 Si  67.9390  74.9980   0.0000 Si 1 RES   0.0000
8787 O  67.9390  76.3730   0.4860 O 1 RES   0.0000
8788 Si  67.9390  77.7490   0.9730 Si 1 RES   0.0000
8789 O  69.1300  74.3100   0.4860 O 1 RES   0.0000
8790 O  66.7470  74.3100   0.4860 O 1 RES   0.0000
8791 O  67.9390  77.7490   2.4310 O 1 RES   0.0000
8792 Si  67.9390  77.7490   3.8900 Si 1 RES   0.0000
8793 O  67.9390  76.3730   4.3770 O 1 RES   0.0000
8794 Si  67.9390  74.9980   4.8630 Si 1 RES   0.0000
8795 O  69.1300  74.3100   4.3770 O 1 RES   0.0000
8796 O  66.7470  74.3100   4.3770 O 1 RES   0.0000
8797 Si  67.9390  74.9980   7.7810 Si 1 RES   0.0000
8798 O  69.1300  74.3100   8.2670 O 1 RES   0.0000
8799 O  66.7470  74.3100   8.2670 O 1 RES   0.0000
8800 O  67.9390  76.3730   8.2670 O 1 RES   0.0000
8801 Si  67.9390  77.7490   8.7530 Si 1 RES   0.0000
8802 O  67.9390  77.7490  10.2120 O 1 RES   0.0000
8803 O  72.7030  74.9980   6.3220 O 1 RES   0.0000
8804 Si  72.7030  74.9980   0.0000 Si 1 RES   0.0000
8805 O  72.7030  76.3730   0.4860 O 1 RES   0.0000
8806 Si  72.7030  77.7490   0.9730 Si 1 RES   0.0000
8807 O  73.8940  74.3100   0.4860 O 1 RES   0.0000
8808 O  71.5120  74.3100   0.4860 O 1 RES   0.0000
8809 O  72.7030  77.7490   2.4310 O 1 RES   0.0000
8810 Si  72.7030  77.7490   3.8900 Si 1 RES   0.0000
8811 O  72.7030  76.3730   4.3770 O 1 RES   0.0000
8812 Si  72.7030  74.9980   4.8630 Si 1 RES   0.0000
8813 O  73.8940  74.3100   4.3770 O 1 RES   0.0000
8814 O  71.5120  74.3100   4.3770 O 1 RES   0.0000
8815 Si  72.7030  74.9980   7.7810 Si 1 RES   0.0000
8816 O  73.8940  74.3100   8.2670 O 1 RES   0.0000
8817 O  71.5120  74.3100   8.2670 O 1 RES   0.0000
8818 O  72.7030  76.3730   8.2670 O 1 RES   0.0000
8819 Si  72.7030  77.7490   8.7530 Si 1 RES   0.0000
8820 O  72.7030  77.7490  10.2120 O 1 RES   0.0000
8821 O  70.3210  79.1240   6.3220 O 1 RES   0.0000
8822 Si  70.3210  79.1240   0.0000 Si 1 RES   0.0000
8823 O  70.3210  80.4990   0.4860 O 1 RES   0.0000
8824 Si  70.3210  40.5750   0.9730 Si 1 RES   0.0000
8825 O  71.5120  78.4360   0.4860 O 1 RES   0.0000
8826 O  69.1300  78.4360   0.4860 O 1 RES   0.0000
8827 O  70.3210  40.5750   2.4310 O 1 RES   0.0000
8828 Si  70.3210  40.5750   3.8900 Si 1 RES   0.0000
8829 O  70.3210  80.4990   4.3770 O 1 RES   0.0000
8830 Si  70.3210  79.1240   4.8630 Si 1 RES   0.0000
8831 O  71.5120  78.4360   4.3770 O 1 RES   0.0000
8832 O  69.1300  78.4360   4.3770 O 1 RES   0.0000
8833 Si  70.3210  79.1240   7.7810 Si 1 RES   0.0000
8834 O  71.5120  78.4360   8.2670 O 1 RES   0.0000
8835 O  69.1300  78.4360   8.2670 O 1 RES   0.0000
8836 O  70.3210  80.4990   8.2670 O 1 RES   0.0000
8837 Si  70.3210  40.5750   8.7530 Si 1 RES   0.0000
8838 O  70.3210  40.5750  10.2120 O 1 RES   0.0000
8839 O  75.0850  79.1240   6.3220 O 1 RES   0.0000
8840 Si  75.0850  79.1240   0.0000 Si 1 RES   0.0000
8841 O  75.0850  80.4990   0.4860 O 1 RES   0.0000
8842 Si  75.0850  40.5750   0.9730 Si 1 RES   0.0000
8843 O  76.2760  78.4360   0.4860 O 1 RES   0.0000
8844 O  73.8940  78.4360   0.4860 O 1 RES   0.0000
8845 O  75.0850  40.5750   2.4310 O 1 RES   0.0000
8846 Si  75.0850  40.5750   3.8900 Si 1 RES   0.0000
8847 O  75.0850  80.4990   4.3770 O 1 RES   0.0000
8848 Si  75.0850  79.1240   4.8630 Si 1 RES   0.0000
8849 O  76.2760  78.4360   4.3770 O 1 RES   0.0000
8850 O  73.8940  78.4360   4.3770 O 1 RES   0.0000
8851 Si  75.0850  79.1240   7.7810 Si 1 RES   0.0000
8852 O  76.2760  78.4360   8.2670 O 1 RES   0.0000
8853 O  73.8940  78.4360   8.2670 O 1 RES   0.0000
8854 O  75.0850  80.4990   8.2670 O 1 RES   0.0000
8855 Si  75.0850  40.5750   8.7530 Si 1 RES   0.0000
8856 O  75.0850  40.5750  10.2120 O 1 RES   0.0000
8857 O  77.4680  74.9980   6.3220 O 1 RES   0.0000
8858 Si  77.4680  74.9980   0.0000 Si 1 RES   0.0000
8859 O  77.4680  76.3730   0.4860 O 1 RES   0.0000
8860 Si  77.4680  77.7490   0.9730 Si 1 RES   0.0000
8861 O  78.6590  74.3100   0.4860 O 1 RES   0.0000
8862 O  76.2760  74.3100   0.4860 O 1 RES   0.0000
8863 O  77.4680  77.7490   2.4310 O 1 RES   0.0000
8864 Si  77.4680  77.7490   3.8900 Si 1 RES   0.0000
8865 O  77.4680  76.3730   4.3770 O 1 RES   0.0000
8866 Si  77.4680  74.9980   4.8630 Si 1 RES   0.0000
8867 O  78.6590  74.3100   4.3770 O 1 RES   0.0000
8868 O  76.2760  74.3100   4.3770 O 1 RES   0.0000
8869 Si  77.4680  74.9980   7.7810 Si 1 RES   0.0000
8870 O  78.6590  74.3100   8.2670 O 1 RES   0.0000
8871 O  76.2760  74.3100   8.2670 O 1 RES   0.0000
8872 O  77.4680  76.3730   8.2670 O 1 RES   0.0000
8873 Si  77.4680  77.7490   8.7530 Si 1 RES   0.0000
8874 O  77.4680  77.7490  10.2120 O 1 RES   0.0000
8875 O  82.2320  74.9980   6.3220 O 1 RES   0.0000
8876 Si  82.2320  74.9980   0.0000 Si 1 RES   0.0000
8877 O  82.2320  76.3730   0.4860 O 1 RES   0.0000
8878 Si  82.2320  77.7490   0.9730 Si 1 RES   0.0000
8879 O  83.4230  74.3100   0.4860 O 1 RES   0.0000
8880 O  81.0410  74.3100   0.4860 O 1 RES   0.0000
8881 O  82.2320  77.7490   2.4310 O 1 RES   0.0000
8882 Si  82.2320  77.7490   3.8900 Si 1 RES   0.0000
8883 O  82.2320  76.3730   4.3770 O 1 RES   0.0000
8884 Si  82.2320  74.9980   4.8630 Si 1 RES   0.0000
8885 O  83.4230  74.3100   4.3770 O 1 RES   0.0000
8886 O  81.0410  74.3100   4.3770 O 1 RES   0.0000
8887 Si  82.2320  74.9980   7.7810 Si 1 RES   0.0000
8888 O  83.4230  74.3100   8.2670 O 1 RES   0.0000
8889 O  81.0410  74.3100   8.2670 O 1 RES   0.0000
8890 O  82.2320  76.3730   8.2670 O 1 RES   0.0000
8891 Si  82.2320  77.7490   8.7530 Si 1 RES   0.0000
8892 O  82.2320  77.7490  10.2120 O 1 RES   0.0000
8893 O  79.8500  79.1240   6.3220 O 1 RES   0.0000
8894 Si  79.8500  79.1240   0.0000 Si 1 RES   0.0000
8895 O  79.8500  80.4990   0.4860 O 1 RES   0.0000
8896 Si  79.8500  40.5750   0.9730 Si 1 RES   0.0000
8897 O  81.0410  78.4360   0.4860 O 1 RES   0.0000
8898 O  78.6590  78.4360   0.4860 O 1 RES   0.0000
8899 O  79.8500  40.5750   2.4310 O 1 RES   0.0000
8900 Si  79.8500  40.5750   3.8900 Si 1 RES   0.0000
8901 O  79.8500  80.4990   4.3770 O 1 RES   0.0000
8902 Si  79.8500  79.1240   4.8630 Si 1 RES   0.0000
8903 O  81.0410  78.4360   4.3770 O 1 RES   0.0000
8904 O  78.6590  78.4360   4.3770 O 1 RES   0.0000
8905 Si  79.8500  79.1240   7.7810 Si 1 RES   0.0000
8906 O  81.0410  78.4360   8.2670 O 1 RES   0.0000
8907 O  78.6590  78.4360   8.2670 O 1 RES   0.0000
8908 O  79.8500  80.4990   8.2670 O 1 RES   0.0000
8909 Si  79.8500  40.5750   8.7530 Si 1 RES   0.0000
8910 O  79.8500  40.5750  10.2120 O 1 RES   0.0000
8911 O  84.6140  79.1240   6.3220 O 1 RES   0.0000
8912 Si  84.6140  79.1240   0.0000 Si 1 RES   0.0000
8913 O  84.6140  80.4990   0.4860 O 1 RES   0.0000
8914 Si  84.6140  40.5750   0.9730 Si 1 RES   0.0000
8915 O  85.8060  78.4360   0.4860 O 1 RES   0.0000
8916 O  83.4230  78.4360   0.4860 O 1 RES   0.0000
8917 O  84.6140  40.5750   2.4310 O 1 RES   0.0000
8918 Si  84.6140  40.5750   3.8900 Si 1 RES   0.0000
8919 O  84.6140  80.4990   4.3770 O 1 RES   0.0000
8920 Si  84.6140  79.1240   4.8630 Si 1 RES   0.0000
8921 O  85.8060  78.4360   4.3770 O 1 RES   0.0000
8922 O  83.4230  78.4360   4.3770 O 1 RES   0.0000
8923 Si  84.6140  79.1240   7.7810 Si 1 RES   0.0000
8924 O  85.8060  78.4360   8.2670 O 1 RES   0.0000
8925 O  83.4230  78.4360   8.2670 O 1 RES   0.0000
8926 O  84.6140  80.4990   8.2670 O 1 RES   0.0000
8927 Si  84.6140  40.5750   8.7530 Si 1 RES   0.0000
8928 O  84.6140  40.5750  10.2120 O 1 RES   0.0000
8929 O  86.9970  74.9980   6.3220 O 1 RES   0.0000
8930 Si  86.9970  74.9980   0.0000 Si 1 RES   0.0000
8931 O  86.9970  76.3730   0.4860 O 1 RES   0.0000
8932 Si  86.9970  77.7490   0.9730 Si 1 RES   0.0000
8933 O  88.1880  74.3100   0.4860 O 1 RES   0.0000
8934 O  85.8060  74.3100   0.4860 O 1 RES   0.0000
8935 O  86.9970  77.7490   2.4310 O 1 RES   0.0000
8936 Si  86.9970  77.7490   3.8900 Si 1 RES   0.0000
8937 O  86.9970  76.3730   4.3770 O 1 RES   0.0000
8938 Si  86.9970  74.9980   4.8630 Si 1 RES   0.0000
8939 O  88.1880  74.3100   4.3770 O 1 RES   0.0000
8940 O  85.8060  74.3100   4.3770 O 1 RES   0.0000
8941 Si  86.9970  74.9980   7.7810 Si 1 RES   0.0000
8942 O  88.1880  74.3100   8.2670 O 1 RES   0.0000
8943 O  85.8060  74.3100   8.2670 O 1 RES   0.0000
8944 O  86.9970  76.3730   8.2670 O 1 RES   0.0000
8945 Si  86.9970  77.7490   8.7530 Si 1 RES   0.0000
8946 O  86.9970  77.7490  10.2120 O 1 RES   0.0000
8947 O  91.7610  74.9980   6.3220 O 1 RES   0.0000
8948 Si  91.7610  74.9980   0.0000 Si 1 RES   0.0000
8949 O  91.7610  76.3730   0.4860 O 1 RES   0.0000
8950 Si  91.7610  77.7490   0.9730 Si 1 RES   0.0000
8951 O  92.9530  74.3100   0.4860 O 1 RES   0.0000
8952 O  90.5700  74.3100   0.4860 O 1 RES   0.0000
8953 O  91.7610  77.7490   2.4310 O 1 RES   0.0000
8954 Si  91.7610  77.7490   3.8900 Si 1 RES   0.0000
8955 O  91.7610  76.3730   4.3770 O 1 RES   0.0000
8956 Si  91.7610  74.9980   4.8630 Si 1 RES   0.0000
8957 O  92.9530  74.3100   4.3770 O 1 RES   0.0000
8958 O  90.5700  74.3100   4.3770 O 1 RES   0.0000
8959 Si  91.7610  74.9980   7.7810 Si 1 RES   0.0000
8960 O  92.9530  74.3100   8.2670 O 1 RES   0.0000
8961 O  90.5700  74.3100   8.2670 O 1 RES   0.0000
8962 O  91.7610  76.3730   8.2670 O 1 RES   0.0000
8963 Si  91.7610  77.7490   8.7530 Si 1 RES   0.0000
8964 O  91.7610  77.7490  10.2120 O 1 RES   0.0000
8965 O  89.3790  79.1240   6.3220 O 1 RES   0.0000
8966 Si  89.3790  79.1240   0.0000 Si 1 RES   0.0000
8967 O  89.3790  80.4990   0.4860 O 1 RES   0.0000
8968 Si  89.3790  40.5750   0.9730 Si 1 RES   0.0000
8969 O  90.5700  78.4360   0.4860 O 1 RES   0.0000
8970 O  88.1880  78.4360   0.4860 O 1 RES   0.0000
8971 O  89.3790  40.5750   2.4310 O 1 RES   0.0000
8972 Si  89.3790  40.5750   3.8900 Si 1 RES   0.0000
8973 O  89.3790  80.4990   4.3770 O 1 RES   0.0000
8974 Si  89.3790  79.1240   4.8630 Si 1 RES   0.0000
8975 O  90.5700  78.4360   4.3770 O 1 RES   0.0000
8976 O  88.1880  78.4360   4.3770 O 1 RES   0.0000
8977 Si  89.3790  79.1240   7.7810 Si 1 RES   0.0000
8978 O  90.5700  78.4360   8.2670 O 1 RES   0.0000
8979 O  88.1880  78.4360   8.2670 O 1 RES   0.0000
8980 O  89.3790  80.4990   8.2670 O 1 RES   0.0000
8981 Si  89.3790  40.5750   8.7530 Si 1 RES   0.0000
8982 O  89.3790  40.5750  10.2120 O 1 RES   0.0000
8983 O  94.1440  79.1240   6.3220 O 1 RES   0.0000
8984 Si  94.1440  79.1240   0.0000 Si 1 RES   0.0000
8985 O  94.1440  80.4990   0.4860 O 1 RES   0.0000
8986 Si  94.1440  40.5750   0.9730 Si 1 RES   0.0000
8987 O  47.6460  78.4360   0.4860 O 1 RES   0.0000
8988 O  92.9530  78.4360   0.4860 O 1 RES   0.0000
8989 O  94.1440  40.5750   2.4310 O 1 RES   0.0000
8990 Si  94.1440  40.5750   3.8900 Si 1 RES   0.0000
8991 O  94.1440  80.4990   4.3770 O 1 RES   0.0000
8992 Si  94.1440  79.1240   4.8630 Si 1 RES   0.0000
8993 O  47.6460  78.4360   4.3770 O 1 RES   0.0000
8994 O  92.9530  78.4360   4.3770 O 1 RES   0.0000
8995 Si  94.1440  79.1240   7.7810 Si 1 RES   0.0000
8996 O  47.6460  78.4360   8.2670 O 1 RES   0.0000
8997 O  92.9530  78.4360   8.2670 O 1 RES   0.0000
8998 O  94.1440  80.4990   8.2670 O 1 RES   0.0000
8999 Si  94.1440  40.5750   8.7530 Si 1 RES   0.0000
9000 O  94.1440  40.5750  10.2120 O 1 RES   0.0000
9001 O  48.8800  83.2880   6.3220 O 1 RES   0.0000
9002 Si  48.8800  83.2880   0.0000 Si 1 RES   0.0000
9003 O  48.8800  84.6630   0.4860 O 1 RES   0.0000
9004 Si  48.8800  86.0390   0.9730 Si 1 RES   0.0000
9005 O  50.0710  82.6000   0.4860 O 1 RES   0.0000
9006 O  47.6890  82.6000   0.4860 O 1 RES   0.0000
9007 O  48.8800  86.0390   2.4310 O 1 RES   0.0000
9008 Si  48.8800  86.0390   3.8900 Si 1 RES   0.0000
9009 O  48.8800  84.6630   4.3770 O 1 RES   0.0000
9010 Si  48.8800  83.2880   4.8630 Si 1 RES   0.0000
9011 O  50.0710  82.6000   4.3770 O 1 RES   0.0000
9012 O  47.6890  82.6000   4.3770 O 1 RES   0.0000
9013 Si  48.8800  83.2880   7.7810 Si 1 RES   0.0000
9014 O  50.0710  82.6000   8.2670 O 1 RES   0.0000
9015 O  47.6890  82.6000   8.2670 O 1 RES   0.0000
9016 O  48.8800  84.6630   8.2670 O 1 RES   0.0000
9017 Si  48.8800  86.0390   8.7530 Si 1 RES   0.0000
9018 O  48.8800  86.0390  10.2120 O 1 RES   0.0000
9019 O  53.6450  83.2880   6.3220 O 1 RES   0.0000
9020 Si  53.6450  83.2880   0.0000 Si 1 RES   0.0000
9021 O  53.6450  84.6630   0.4860 O 1 RES   0.0000
9022 Si  53.6450  86.0390   0.9730 Si 1 RES   0.0000
9023 O  54.8360  82.6000   0.4860 O 1 RES   0.0000
9024 O  52.4540  82.6000   0.4860 O 1 RES   0.0000
9025 O  53.6450  86.0390   2.4310 O 1 RES   0.0000
9026 Si  53.6450  86.0390   3.8900 Si 1 RES   0.0000
9027 O  53.6450  84.6630   4.3770 O 1 RES   0.0000
9028 Si  53.6450  83.2880   4.8630 Si 1 RES   0.0000
9029 O  54.8360  82.6000   4.3770 O 1 RES   0.0000
9030 O  52.4540  82.6000   4.3770 O 1 RES   0.0000
9031 Si  53.6450  83.2880   7.7810 Si 1 RES   0.0000
9032 O  54.8360  82.6000   8.2670 O 1 RES   0.0000
9033 O  52.4540  82.6000   8.2670 O 1 RES   0.0000
9034 O  53.6450  84.6630   8.2670 O 1 RES   0.0000
9035 Si  53.6450  86.0390   8.7530 Si 1 RES   0.0000
9036 O  53.6450  86.0390  10.2120 O 1 RES   0.0000
9037 O  51.2620  87.4140   6.3220 O 1 RES   0.0000
9038 Si  51.2620  87.4140   0.0000 Si 1 RES   0.0000
9039 O  51.2620  88.7890   0.4860 O 1 RES   0.0000
9040 Si  51.2620  90.1650   0.9730 Si 1 RES   0.0000
9041 O  52.4540  86.7260   0.4860 O 1 RES   0.0000
9042 O  50.0710  86.7260   0.4860 O 1 RES   0.0000
9043 O  51.2620  90.1650   2.4310 O 1 RES   0.0000
9044 Si  51.2620  90.1650   3.8900 Si 1 RES   0.0000
9045 O  51.2620  88.7890   4.3770 O 1 RES   0.0000
9046 Si  51.2620  87.4140   4.8630 Si 1 RES   0.0000
9047 O  52.4540  86.7260   4.3770 O 1 RES   0.0000
9048 O  50.0710  86.7260   4.3770 O 1 RES   0.0000
9049 Si  51.2620  87.4140   7.7810 Si 1 RES   0.0000
9050 O  52.4540  86.7260   8.2670 O 1 RES   0.0000
9051 O  50.0710  86.7260   8.2670 O 1 RES   0.0000
9052 O  51.2620  88.7890   8.2670 O 1 RES   0.0000
9053 Si  51.2620  90.1650   8.7530 Si 1 RES   0.0000
9054 O  51.2620  90.1650  10.2120 O 1 RES   0.0000
9055 O  56.0270  87.4140   6.3220 O 1 RES   0.0000
9056 Si  56.0270  87.4140   0.0000 Si 1 RES   0.0000
9057 O  56.0270  88.7890   0.4860 O 1 RES   0.0000
9058 Si  56.0270  90.1650   0.9730 Si 1 RES   0.0000
9059 O  57.2180  86.7260   0.4860 O 1 RES   0.0000
9060 O  54.8360  86.7260   0.4860 O 1 RES   0.0000
9061 O  56.0270  90.1650   2.4310 O 1 RES   0.0000
9062 Si  56.0270  90.1650   3.8900 Si 1 RES   0.0000
9063 O  56.0270  88.7890   4.3770 O 1 RES   0.0000
9064 Si  56.0270  87.4140   4.8630 Si 1 RES   0.0000
9065 O  57.2180  86.7260   4.3770 O 1 RES   0.0000
9066 O  54.8360  86.7260   4.3770 O 1 RES   0.0000
9067 Si  56.0270  87.4140   7.7810 Si 1 RES   0.0000
9068 O  57.2180  86.7260   8.2670 O 1 RES   0.0000
9069 O  54.8360  86.7260   8.2670 O 1 RES   0.0000
9070 O  56.0270  88.7890   8.2670 O 1 RES   0.0000
9071 Si  56.0270  90.1650   8.7530 Si 1 RES   0.0000
9072 O  56.0270  90.1650  10.2120 O 1 RES   0.0000
9073 O  58.4090  83.2880   6.3220 O 1 RES   0.0000
9074 Si  58.4090  83.2880   0.0000 Si 1 RES   0.0000
9075 O  58.4090  84.6630   0.4860 O 1 RES   0.0000
9076 Si  58.4090  86.0390   0.9730 Si 1 RES   0.0000
9077 O  59.6010  82.6000   0.4860 O 1 RES   0.0000
9078 O  57.2180  82.6000   0.4860 O 1 RES   0.0000
9079 O  58.4090  86.0390   2.4310 O 1 RES   0.0000
9080 Si  58.4090  86.0390   3.8900 Si 1 RES   0.0000
9081 O  58.4090  84.6630   4.3770 O 1 RES   0.0000
9082 Si  58.4090  83.2880   4.8630 Si 1 RES   0.0000
9083 O  59.6010  82.6000   4.3770 O 1 RES   0.0000
9084 O  57.2180  82.6000   4.3770 O 1 RES   0.0000
9085 Si  58.4090  83.2880   7.7810 Si 1 RES   0.0000
9086 O  59.6010  82.6000   8.2670 O 1 RES   0.0000
9087 O  57.2180  82.6000   8.2670 O 1 RES   0.0000
9088 O  58.4090  84.6630   8.2670 O 1 RES   0.0000
9089 Si  58.4090  86.0390   8.7530 Si 1 RES   0.0000
9090 O  58.4090  86.0390  10.2120 O 1 RES   0.0000
9091 O  63.1740  83.2880   6.3220 O 1 RES   0.0000
9092 Si  63.1740  83.2880   0.0000 Si 1 RES   0.0000
9093 O  63.1740  84.6630   0.4860 O 1 RES   0.0000
9094 Si  63.1740  86.0390   0.9730 Si 1 RES   0.0000
9095 O  64.3650  82.6000   0.4860 O 1 RES   0.0000
9096 O  61.9830  82.6000   0.4860 O 1 RES   0.0000
9097 O  63.1740  86.0390   2.4310 O 1 RES   0.0000
9098 Si  63.1740  86.0390   3.8900 Si 1 RES   0.0000
9099 O  63.1740  84.6630   4.3770 O 1 RES   0.0000
9100 Si  63.1740  83.2880   4.8630 Si 1 RES   0.0000
9101 O  64.3650  82.6000   4.3770 O 1 RES   0.0000
9102 O  61.9830  82.6000   4.3770 O 1 RES   0.0000
9103 Si  63.1740  83.2880   7.7810 Si 1 RES   0.0000
9104 O  64.3650  82.6000   8.2670 O 1 RES   0.0000
9105 O  61.9830  82.6000   8.2670 O 1 RES   0.0000
9106 O  63.1740  84.6630   8.2670 O 1 RES   0.0000
9107 Si  63.1740  86.0390   8.7530 Si 1 RES   0.0000
9108 O  63.1740  86.0390  10.2120 O 1 RES   0.0000
9109 O  60.7920  87.4140   6.3220 O 1 RES   0.0000
9110 Si  60.7920  87.4140   0.0000 Si 1 RES   0.0000
9111 O  60.7920  88.7890   0.4860 O 1 RES   0.0000
9112 Si  60.7920  90.1650   0.9730 Si 1 RES   0.0000
9113 O  61.9830  86.7260   0.4860 O 1 RES   0.0000
9114 O  59.6010  86.7260   0.4860 O 1 RES   0.0000
9115 O  60.7920  90.1650   2.4310 O 1 RES   0.0000
9116 Si  60.7920  90.1650   3.8900 Si 1 RES   0.0000
9117 O  60.7920  88.7890   4.3770 O 1 RES   0.0000
9118 Si  60.7920  87.4140   4.8630 Si 1 RES   0.0000
9119 O  61.9830  86.7260   4.3770 O 1 RES   0.0000
9120 O  59.6010  86.7260   4.3770 O 1 RES   0.0000
9121 Si  60.7920  87.4140   7.7810 Si 1 RES   0.0000
9122 O  61.9830  86.7260   8.2670 O 1 RES   0.0000
9123 O  59.6010  86.7260   8.2670 O 1 RES   0.0000
9124 O  60.7920  88.7890   8.2670 O 1 RES   0.0000
9125 Si  60.7920  90.1650   8.7530 Si 1 RES   0.0000
9126 O  60.7920  90.1650  10.2120 O 1 RES   0.0000
9127 O  65.5560  87.4140   6.3220 O 1 RES   0.0000
9128 Si  65.5560  87.4140   0.0000 Si 1 RES   0.0000
9129 O  65.5560  88.7890   0.4860 O 1 RES   0.0000
9130 Si  65.5560  90.1650   0.9730 Si 1 RES   0.0000
9131 O  66.7470  86.7260   0.4860 O 1 RES   0.0000
9132 O  64.3650  86.7260   0.4860 O 1 RES   0.0000
9133 O  65.5560  90.1650   2.4310 O 1 RES   0.0000
9134 Si  65.5560  90.1650   3.8900 Si 1 RES   0.0000
9135 O  65.5560  88.7890   4.3770 O 1 RES   0.0000
9136 Si  65.5560  87.4140   4.8630 Si 1 RES   0.0000
9137 O  66.7470  86.7260   4.3770 O 1 RES   0.0000
9138 O  64.3650  86.7260   4.3770 O 1 RES   0.0000
9139 Si  65.5560  87.4140   7.7810 Si 1 RES   0.0000
9140 O  66.7470  86.7260   8.2670 O 1 RES   0.0000
9141 O  64.3650  86.7260   8.2670 O 1 RES   0.0000
9142 O  65.5560  88.7890   8.2670 O 1 RES   0.0000
9143 Si  65.5560  90.1650   8.7530 Si 1 RES   0.0000
9144 O  65.5560  90.1650  10.2120 O 1 RES   0.0000
9145 O  67.9390  83.2880   6.3220 O 1 RES   0.0000
9146 Si  67.9390  83.2880   0.0000 Si 1 RES   0.0000
9147 O  67.9390  84.6630   0.4860 O 1 RES   0.0000
9148 Si  67.9390  86.0390   0.9730 Si 1 RES   0.0000
9149 O  69.1300  82.6000   0.4860 O 1 RES   0.0000
9150 O  66.7470  82.6000   0.4860 O 1 RES   0.0000
9151 O  67.9390  86.0390   2.4310 O 1 RES   0.0000
9152 Si  67.9390  86.0390   3.8900 Si 1 RES   0.0000
9153 O  67.9390  84.6630   4.3770 O 1 RES   0.0000
9154 Si  67.9390  83.2880   4.8630 Si 1 RES   0.0000
9155 O  69.1300  82.6000   4.3770 O 1 RES   0.0000
9156 O  66.7470  82.6000   4.3770 O 1 RES   0.0000
9157 Si  67.9390  83.2880   7.7810 Si 1 RES   0.0000
9158 O  69.1300  82.6000   8.2670 O 1 RES   0.0000
9159 O  66.7470  82.6000   8.2670 O 1 RES   0.0000
9160 O  67.9390  84.6630   8.2670 O 1 RES   0.0000
9161 Si  67.9390  86.0390   8.7530 Si 1 RES   0.0000
9162 O  67.9390  86.0390  10.2120 O 1 RES   0.0000
9163 O  72.7030  83.2880   6.3220 O 1 RES   0.0000
9164 Si  72.7030  83.2880   0.0000 Si 1 RES   0.0000
9165 O  72.7030  84.6630   0.4860 O 1 RES   0.0000
9166 Si  72.7030  86.0390   0.9730 Si 1 RES   0.0000
9167 O  73.8940  82.6000   0.4860 O 1 RES   0.0000
9168 O  71.5120  82.6000   0.4860 O 1 RES   0.0000
9169 O  72.7030  86.0390   2.4310 O 1 RES   0.0000
9170 Si  72.7030  86.0390   3.8900 Si 1 RES   0.0000
9171 O  72.7030  84.6630   4.3770 O 1 RES   0.0000
9172 Si  72.7030  83.2880   4.8630 Si 1 RES   0.0000
9173 O  73.8940  82.6000   4.3770 O 1 RES   0.0000
9174 O  71.5120  82.6000   4.3770 O 1 RES   0.0000
9175 Si  72.7030  83.2880   7.7810 Si 1 RES   0.0000
9176 O  73.8940  82.6000   8.2670 O 1 RES   0.0000
9177 O  71.5120  82.6000   8.2670 O 1 RES   0.0000
9178 O  72.7030  84.6630   8.2670 O 1 RES   0.0000
9179 Si  72.7030  86.0390   8.7530 Si 1 RES   0.0000
9180 O  72.7030  86.0390  10.2120 O 1 RES   0.0000
9181 O  70.3210  87.4140   6.3220 O 1 RES   0.0000
9182 Si  70.3210  87.4140   0.0000 Si 1 RES   0.0000
9183 O  70.3210  88.7890   0.4860 O 1 RES   0.0000
9184 Si  70.3210  90.1650   0.9730 Si 1 RES   0.0000
9185 O  71.5120  86.7260   0.4860 O 1 RES   0.0000
9186 O  69.1300  86.7260   0.4860 O 1 RES   0.0000
9187 O  70.3210  90.1650   2.4310 O 1 RES   0.0000
9188 Si  70.3210  90.1650   3.8900 Si 1 RES   0.0000
9189 O  70.3210  88.7890   4.3770 O 1 RES   0.0000
9190 Si  70.3210  87.4140   4.8630 Si 1 RES   0.0000
9191 O  71.5120  86.7260   4.3770 O 1 RES   0.0000
9192 O  69.1300  86.7260   4.3770 O 1 RES   0.0000
9193 Si  70.3210  87.4140   7.7810 Si 1 RES   0.0000
9194 O  71.5120  86.7260   8.2670 O 1 RES   0.0000
9195 O  69.1300  86.7260   8.2670 O 1 RES   0.0000
9196 O  70.3210  88.7890   8.2670 O 1 RES   0.0000
9197 Si  70.3210  90.1650   8.7530 Si 1 RES   0.0000
9198 O  70.3210  90.1650  10.2120 O 1 RES   0.0000
9199 O  75.0850  87.4140   6.3220 O 1 RES   0.0000
9200 Si  75.0850  87.4140   0.0000 Si 1 RES   0.0000
9201 O  75.0850  88.7890   0.4860 O 1 RES   0.0000
9202 Si  75.0850  90.1650   0.9730 Si 1 RES   0.0000
9203 O  76.2760  86.7260   0.4860 O 1 RES   0.0000
9204 O  73.8940  86.7260   0.4860 O 1 RES   0.0000
9205 O  75.0850  90.1650   2.4310 O 1 RES   0.0000
9206 Si  75.0850  90.1650   3.8900 Si 1 RES   0.0000
9207 O  75.0850  88.7890   4.3770 O 1 RES   0.0000
9208 Si  75.0850  87.4140   4.8630 Si 1 RES   0.0000
9209 O  76.2760  86.7260   4.3770 O 1 RES   0.0000
9210 O  73.8940  86.7260   4.3770 O 1 RES   0.0000
9211 Si  75.0850  87.4140   7.7810 Si 1 RES   0.0000
9212 O  76.2760  86.7260   8.2670 O 1 RES   0.0000
9213 O  73.8940  86.7260   8.2670 O 1 RES   0.0000
9214 O  75.0850  88.7890   8.2670 O 1 RES   0.0000
9215 Si  75.0850  90.1650   8.7530 Si 1 RES   0.0000
9216 O  75.0850  90.1650  10.2120 O 1 RES   0.0000
9217 O  77.4680  83.2880   6.3220 O 1 RES   0.0000
9218 Si  77.4680  83.2880   0.0000 Si 1 RES   0.0000
9219 O  77.4680  84.6630   0.4860 O 1 RES   0.0000
9220 Si  77.4680  86.0390   0.9730 Si 1 RES   0.0000
9221 O  78.6590  82.6000   0.4860 O 1 RES   0.0000
9222 O  76.2760  82.6000   0.4860 O 1 RES   0.0000
9223 O  77.4680  86.0390   2.4310 O 1 RES   0.0000
9224 Si  77.4680  86.0390   3.8900 Si 1 RES   0.0000
9225 O  77.4680  84.6630   4.3770 O 1 RES   0.0000
9226 Si  77.4680  83.2880   4.8630 Si 1 RES   0.0000
9227 O  78.6590  82.6000   4.3770 O 1 RES   0.0000
9228 O  76.2760  82.6000   4.3770 O 1 RES   0.0000
9229 Si  77.4680  83.2880   7.7810 Si 1 RES   0.0000
9230 O  78.6590  82.6000   8.2670 O 1 RES   0.0000
9231 O  76.2760  82.6000   8.2670 O 1 RES   0.0000
9232 O  77.4680  84.6630   8.2670 O 1 RES   0.0000
9233 Si  77.4680  86.0390   8.7530 Si 1 RES   0.0000
9234 O  77.4680  86.0390  10.2120 O 1 RES   0.0000
9235 O  82.2320  83.2880   6.3220 O 1 RES   0.0000
9236 Si  82.2320  83.2880   0.0000 Si 1 RES   0.0000
9237 O  82.2320  84.6630   0.4860 O 1 RES   0.0000
9238 Si  82.2320  86.0390   0.9730 Si 1 RES   0.0000
9239 O  83.4230  82.6000   0.4860 O 1 RES   0.0000
9240 O  81.0410  82.6000   0.4860 O 1 RES   0.0000
9241 O  82.2320  86.0390   2.4310 O 1 RES   0.0000
9242 Si  82.2320  86.0390   3.8900 Si 1 RES   0.0000
9243 O  82.2320  84.6630   4.3770 O 1 RES   0.0000
9244 Si  82.2320  83.2880   4.8630 Si 1 RES   0.0000
9245 O  83.4230  82.6000   4.3770 O 1 RES   0.0000
9246 O  81.0410  82.6000   4.3770 O 1 RES   0.0000
9247 Si  82.2320  83.2880   7.7810 Si 1 RES   0.0000
9248 O  83.4230  82.6000   8.2670 O 1 RES   0.0000
9249 O  81.0410  82.6000   8.2670 O 1 RES   0.0000
9250 O  82.2320  84.6630   8.2670 O 1 RES   0.0000
9251 Si  82.2320  86.0390   8.7530 Si 1 RES   0.0000
9252 O  82.2320  86.0390  10.2120 O 1 RES   0.0000
9253 O  79.8500  87.4140   6.3220 O 1 RES   0.0000
9254 Si  79.8500  87.4140   0.0000 Si 1 RES   0.0000
9255 O  79.8500  88.7890   0.4860 O 1 RES   0.0000
9256 Si  79.8500  90.1650   0.9730 Si 1 RES   0.0000
9257 O  81.0410  86.7260   0.4860 O 1 RES   0.0000
9258 O  78.6590  86.7260   0.4860 O 1 RES   0.0000
9259 O  79.8500  90.1650   2.4310 O 1 RES   0.0000
9260 Si  79.8500  90.1650   3.8900 Si 1 RES   0.0000
9261 O  79.8500  88.7890   4.3770 O 1 RES   0.0000
9262 Si  79.8500  87.4140   4.8630 Si 1 RES   0.0000
9263 O  81.0410  86.7260   4.3770 O 1 RES   0.0000
9264 O  78.6590  86.7260   4.3770 O 1 RES   0.0000
9265 Si  79.8500  87.4140   7.7810 Si 1 RES   0.0000
9266 O  81.0410  86.7260   8.2670 O 1 RES   0.0000
9267 O  78.6590  86.7260   8.2670 O 1 RES   0.0000
9268 O  79.8500  88.7890   8.2670 O 1 RES   0.0000
9269 Si  79.8500  90.1650   8.7530 Si 1 RES   0.0000
9270 O  79.8500  90.1650  10.2120 O 1 RES   0.0000
9271 O  84.6140  87.4140   6.3220 O 1 RES   0.0000
9272 Si  84.6140  87.4140   0.0000 Si 1 RES   0.0000
9273 O  84.6140  88.7890   0.4860 O 1 RES   0.0000
9274 Si  84.6140  90.1650   0.9730 Si 1 RES   0.0000
9275 O  85.8060  86.7260   0.4860 O 1 RES   0.0000
9276 O  83.4230  86.7260   0.4860 O 1 RES   0.0000
9277 O  84.6140  90.1650   2.4310 O 1 RES   0.0000
9278 Si  84.6140  90.1650   3.8900 Si 1 RES   0.0000
9279 O  84.6140  88.7890   4.3770 O 1 RES   0.0000
9280 Si  84.6140  87.4140   4.8630 Si 1 RES   0.0000
9281 O  85.8060  86.7260   4.3770 O 1 RES   0.0000
9282 O  83.4230  86.7260   4.3770 O 1 RES   0.0000
9283 Si  84.6140  87.4140   7.7810 Si 1 RES   0.0000
9284 O  85.8060  86.7260   8.2670 O 1 RES   0.0000
9285 O  83.4230  86.7260   8.2670 O 1 RES   0.0000
9286 O  84.6140  88.7890   8.2670 O 1 RES   0.0000
9287 Si  84.6140  90.1650   8.7530 Si 1 RES   0.0000
9288 O  84.6140  90.1650  10.2120 O 1 RES   0.0000
9289 O  86.9970  83.2880   6.3220 O 1 RES   0.0000
9290 Si  86.9970  83.2880   0.0000 Si 1 RES   0.0000
9291 O  86.9970  84.6630   0.4860 O 1 RES   0.0000
9292 Si  86.9970  86.0390   0.9730 Si 1 RES   0.0000
9293 O  88.1880  82.6000   0.4860 O 1 RES   0.0000
9294 O  85.8060  82.6000   0.4860 O 1 RES   0.0000
9295 O  86.9970  86.0390   2.4310 O 1 RES   0.0000
9296 Si  86.9970  86.0390   3.8900 Si 1 RES   0.0000
9297 O  86.9970  84.6630   4.3770 O 1 RES   0.0000
9298 Si  86.9970  83.2880   4.8630 Si 1 RES   0.0000
9299 O  88.1880  82.6000   4.3770 O 1 RES   0.0000
9300 O  85.8060  82.6000   4.3770 O 1 RES   0.0000
9301 Si  86.9970  83.2880   7.7810 Si 1 RES   0.0000
9302 O  88.1880  82.6000   8.2670 O 1 RES   0.0000
9303 O  85.8060  82.6000   8.2670 O 1 RES   0.0000
9304 O  86.9970  84.6630   8.2670 O 1 RES   0.0000
9305 Si  86.9970  86.0390   8.7530 Si 1 RES   0.0000
9306 O  86.9970  86.0390  10.2120 O 1 RES   0.0000
9307 O  91.7610  83.2880   6.3220 O 1 RES   0.0000
9308 Si  91.7610  83.2880   0.0000 Si 1 RES   0.0000
9309 O  91.7610  84.6630   0.4860 O 1 RES   0.0000
9310 Si  91.7610  86.0390   0.9730 Si 1 RES   0.0000
9311 O  92.9530  82.6000   0.4860 O 1 RES   0.0000
9312 O  90.5700  82.6000   0.4860 O 1 RES   0.0000
9313 O  91.7610  86.0390   2.4310 O 1 RES   0.0000
9314 Si  91.7610  86.0390   3.8900 Si 1 RES   0.0000
9315 O  91.7610  84.6630   4.3770 O 1 RES   0.0000
9316 Si  91.7610  83.2880   4.8630 Si 1 RES   0.0000
9317 O  92.9530  82.6000   4.3770 O 1 RES   0.0000
9318 O  90.5700  82.6000   4.3770 O 1 RES   0.0000
9319 Si  91.7610  83.2880   7.7810 Si 1 RES   0.0000
9320 O  92.9530  82.6000   8.2670 O 1 RES   0.0000
9321 O  90.5700  82.6000   8.2670 O 1 RES   0.0000
9322 O  91.7610  84.6630   8.2670 O 1 RES   0.0000
9323 Si  91.7610  86.0390   8.7530 Si 1 RES   0.0000
9324 O  91.7610  86.0390  10.2120 O 1 RES   0.0000
9325 O  89.3790  87.4140   6.3220 O 1 RES   0.0000
9326 Si  89.3790  87.4140   0.0000 Si 1 RES   0.0000
9327 O  89.3790  88.7890   0.4860 O 1 RES   0.0000
9328 Si  89.3790  90.1650   0.9730 Si 1 RES   0.0000
9329 O  90.5700  86.7260   0.4860 O 1 RES   0.0000
9330 O  88.1880  86.7260   0.4860 O 1 RES   0.0000
9331 O  89.3790  90.1650   2.4310 O 1 RES   0.0000
9332 Si  89.3790  90.1650   3.8900 Si 1 RES   0.0000
9333 O  89.3790  88.7890   4.3770 O 1 RES   0.0000
9334 Si  89.3790  87.4140   4.8630 Si 1 RES   0.0000
9335 O  90.5700  86.7260   4.3770 O 1 RES   0.0000
9336 O  88.1880  86.7260   4.3770 O 1 RES   0.0000
9337 Si  89.3790  87.4140   7.7810 Si 1 RES   0.0000
9338 O  90.5700  86.7260   8.2670 O 1 RES   0.0000
9339 O  88.1880  86.7260   8.2670 O 1 RES   0.0000
9340 O  89.3790  88.7890   8.2670 O 1 RES   0.0000
9341 Si  89.3790  90.1650   8.7530 Si 1 RES   0.0000
9342 O  89.3790  90.1650  10.2120 O 1 RES   0.0000
9343 O  94.1440  87.4140   6.3220 O 1 RES   0.0000
9344 Si  94.1440  87.4140   0.0000 Si 1 RES   0.0000
9345 O  94.1440  88.7890   0.4860 O 1 RES   0.0000
9346 Si  94.1440  90.1650   0.9730 Si 1 RES   0.0000
9347 O  47.6460  86.7260   0.4860 O 1 RES   0.0000
9348 O  92.9530  86.7260   0.4860 O 1 RES   0.0000
9349 O  94.1440  90.1650   2.4310 O 1 RES   0.0000
9350 Si  94.1440  90.1650   3.8900 Si 1 RES   0.0000
9351 O  94.1440  88.7890   4.3770 O 1 RES   0.0000
9352 Si  94.1440  87.4140   4.8630 Si 1 RES   0.0000
9353 O  47.6460  86.7260   4.3770 O 1 RES   0.0000
9354 O  92.9530  86.7260   4.3770 O 1 RES   0.0000
9355 Si  94.1440  87.4140   7.7810 Si 1 RES   0.0000
9356 O  47.6460  86.7260   8.2670 O 1 RES   0.0000
9357 O  92.9530  86.7260   8.2670 O 1 RES   0.0000
9358 O  94.1440  88.7890   8.2670 O 1 RES   0.0000
9359 Si  94.1440  90.1650   8.7530 Si 1 RES   0.0000
9360 O  94.1440  90.1650  10.2120 O 1 RES   0.0000
9361 O  48.8800  91.5400   6.3220 O 1 RES   0.0000
9362 Si  48.8800  91.5400   0.0000 Si 1 RES   0.0000
9363 O  48.8800  92.9160   0.4860 O 1 RES   0.0000
9364 Si  48.8800  94.2910   0.9730 Si 1 RES   0.0000
9365 O  50.0710  90.8530   0.4860 O 1 RES   0.0000
9366 O  47.6890  90.8530   0.4860 O 1 RES   0.0000
9367 O  48.8800  94.2910   2.4310 O 1 RES   0.0000
9368 Si  48.8800  94.2910   3.8900 Si 1 RES   0.0000
9369 O  48.8800  92.9160   4.3770 O 1 RES   0.0000
9370 Si  48.8800  91.5400   4.8630 Si 1 RES   0.0000
9371 O  50.0710  90.8530   4.3770 O 1 RES   0.0000
9372 O  47.6890  90.8530   4.3770 O 1 RES   0.0000
9373 Si  48.8800  91.5400   7.7810 Si 1 RES   0.0000
9374 O  50.0710  90.8530   8.2670 O 1 RES   0.0000
9375 O  47.6890  90.8530   8.2670 O 1 RES   0.0000
9376 O  48.8800  92.9160   8.2670 O 1 RES   0.0000
9377 Si  48.8800  94.2910   8.7530 Si 1 RES   0.0000
9378 O  48.8800  94.2910  10.2120 O 1 RES   0.0000
9379 O  53.6450  91.5400   6.3220 O 1 RES   0.0000
9380 Si  53.6450  91.5400   0.0000 Si 1 RES   0.0000
9381 O  53.6450  92.9160   0.4860 O 1 RES   0.0000
9382 Si  53.6450  94.2910   0.9730 Si 1 RES   0.0000
9383 O  54.8360  90.8530   0.4860 O 1 RES   0.0000
9384 O  52.4540  90.8530   0.4860 O 1 RES   0.0000
9385 O  53.6450  94.2910   2.4310 O 1 RES   0.0000
9386 Si  53.6450  94.2910   3.8900 Si 1 RES   0.0000
9387 O  53.6450  92.9160   4.3770 O 1 RES   0.0000
9388 Si  53.6450  91.5400   4.8630 Si 1 RES   0.0000
9389 O  54.8360  90.8530   4.3770 O 1 RES   0.0000
9390 O  52.4540  90.8530   4.3770 O 1 RES   0.0000
9391 Si  53.6450  91.5400   7.7810 Si 1 RES   0.0000
9392 O  54.8360  90.8530   8.2670 O 1 RES   0.0000
9393 O  52.4540  90.8530   8.2670 O 1 RES   0.0000
9394 O  53.6450  92.9160   8.2670 O 1 RES   0.0000
9395 Si  53.6450  94.2910   8.7530 Si 1 RES   0.0000
9396 O  53.6450  94.2910  10.2120 O 1 RES   0.0000
9397 O  51.2620  95.6660   6.3220 O 1 RES   0.0000
9398 Si  51.2620  95.6660   0.0000 Si 1 RES   0.0000
9399 O  51.2620  97.0420   0.4860 O 1 RES   0.0000
9400 Si  51.2620  98.4170   0.9730 Si 1 RES   0.0000
9401 O  52.4540  94.9790   0.4860 O 1 RES   0.0000
9402 O  50.0710  94.9790   0.4860 O 1 RES   0.0000
9403 O  51.2620  98.4170   2.4310 O 1 RES   0.0000
9404 Si  51.2620  98.4170   3.8900 Si 1 RES   0.0000
9405 O  51.2620  97.0420   4.3770 O 1 RES   0.0000
9406 Si  51.2620  95.6660   4.8630 Si 1 RES   0.0000
9407 O  52.4540  94.9790   4.3770 O 1 RES   0.0000
9408 O  50.0710  94.9790   4.3770 O 1 RES   0.0000
9409 Si  51.2620  95.6660   7.7810 Si 1 RES   0.0000
9410 O  52.4540  94.9790   8.2670 O 1 RES   0.0000
9411 O  50.0710  94.9790   8.2670 O 1 RES   0.0000
9412 O  51.2620  97.0420   8.2670 O 1 RES   0.0000
9413 Si  51.2620  98.4170   8.7530 Si 1 RES   0.0000
9414 O  51.2620  98.4170  10.2120 O 1 RES   0.0000
9415 O  56.0270  95.6660   6.3220 O 1 RES   0.0000
9416 Si  56.0270  95.6660   0.0000 Si 1 RES   0.0000
9417 O  56.0270  97.0420   0.4860 O 1 RES   0.0000
9418 Si  56.0270  98.4170   0.9730 Si 1 RES   0.0000
9419 O  57.2180  94.9790   0.4860 O 1 RES   0.0000
9420 O  54.8360  94.9790   0.4860 O 1 RES   0.0000
9421 O  56.0270  98.4170   2.4310 O 1 RES   0.0000
9422 Si  56.0270  98.4170   3.8900 Si 1 RES   0.0000
9423 O  56.0270  97.0420   4.3770 O 1 RES   0.0000
9424 Si  56.0270  95.6660   4.8630 Si 1 RES   0.0000
9425 O  57.2180  94.9790   4.3770 O 1 RES   0.0000
9426 O  54.8360  94.9790   4.3770 O 1 RES   0.0000
9427 Si  56.0270  95.6660   7.7810 Si 1 RES   0.0000
9428 O  57.2180  94.9790   8.2670 O 1 RES   0.0000
9429 O  54.8360  94.9790   8.2670 O 1 RES   0.0000
9430 O  56.0270  97.0420   8.2670 O 1 RES   0.0000
9431 Si  56.0270  98.4170   8.7530 Si 1 RES   0.0000
9432 O  56.0270  98.4170  10.2120 O 1 RES   0.0000
9433 O  58.4090  91.5400   6.3220 O 1 RES   0.0000
9434 Si  58.4090  91.5400   0.0000 Si 1 RES   0.0000
9435 O  58.4090  92.9160   0.4860 O 1 RES   0.0000
9436 Si  58.4090  94.2910   0.9730 Si 1 RES   0.0000
9437 O  59.6010  90.8530   0.4860 O 1 RES   0.0000
9438 O  57.2180  90.8530   0.4860 O 1 RES   0.0000
9439 O  58.4090  94.2910   2.4310 O 1 RES   0.0000
9440 Si  58.4090  94.2910   3.8900 Si 1 RES   0.0000
9441 O  58.4090  92.9160   4.3770 O 1 RES   0.0000
9442 Si  58.4090  91.5400   4.8630 Si 1 RES   0.0000
9443 O  59.6010  90.8530   4.3770 O 1 RES   0.0000
9444 O  57.2180  90.8530   4.3770 O 1 RES   0.0000
9445 Si  58.4090  91.5400   7.7810 Si 1 RES   0.0000
9446 O  59.6010  90.8530   8.2670 O 1 RES   0.0000
9447 O  57.2180  90.8530   8.2670 O 1 RES   0.0000
9448 O  58.4090  92.9160   8.2670 O 1 RES   0.0000
9449 Si  58.4090  94.2910   8.7530 Si 1 RES   0.0000
9450 O  58.4090  94.2910  10.2120 O 1 RES   0.0000
9451 O  63.1740  91.5400   6.3220 O 1 RES   0.0000
9452 Si  63.1740  91.5400   0.0000 Si 1 RES   0.0000
9453 O  63.1740  92.9160   0.4860 O 1 RES   0.0000
9454 Si  63.1740  94.2910   0.9730 Si 1 RES   0.0000
9455 O  64.3650  90.8530   0.4860 O 1 RES   0.0000
9456 O  61.9830  90.8530   0.4860 O 1 RES   0.0000
9457 O  63.1740  94.2910   2.4310 O 1 RES   0.0000
9458 Si  63.1740  94.2910   3.8900 Si 1 RES   0.0000
9459 O  63.1740  92.9160   4.3770 O 1 RES   0.0000
9460 Si  63.1740  91.5400   4.8630 Si 1 RES   0.0000
9461 O  64.3650  90.8530   4.3770 O 1 RES   0.0000
9462 O  61.9830  90.8530   4.3770 O 1 RES   0.0000
9463 Si  63.1740  91.5400   7.7810 Si 1 RES   0.0000
9464 O  64.3650  90.8530   8.2670 O 1 RES   0.0000
9465 O  61.9830  90.8530   8.2670 O 1 RES   0.0000
9466 O  63.1740  92.9160   8.2670 O 1 RES   0.0000
9467 Si  63.1740  94.2910   8.7530 Si 1 RES   0.0000
9468 O  63.1740  94.2910  10.2120 O 1 RES   0.0000
9469 O  60.7920  95.6660   6.3220 O 1 RES   0.0000
9470 Si  60.7920  95.6660   0.0000 Si 1 RES   0.0000
9471 O  60.7920  97.0420   0.4860 O 1 RES   0.0000
9472 Si  60.7920  98.4170   0.9730 Si 1 RES   0.0000
9473 O  61.9830  94.9790   0.4860 O 1 RES   0.0000
9474 O  59.6010  94.9790   0.4860 O 1 RES   0.0000
9475 O  60.7920  98.4170   2.4310 O 1 RES   0.0000
9476 Si  60.7920  98.4170   3.8900 Si 1 RES   0.0000
9477 O  60.7920  97.0420   4.3770 O 1 RES   0.0000
9478 Si  60.7920  95.6660   4.8630 Si 1 RES   0.0000
9479 O  61.9830  94.9790   4.3770 O 1 RES   0.0000
9480 O  59.6010  94.9790   4.3770 O 1 RES   0.0000
9481 Si  60.7920  95.6660   7.7810 Si 1 RES   0.0000
9482 O  61.9830  94.9790   8.2670 O 1 RES   0.0000
9483 O  59.6010  94.9790   8.2670 O 1 RES   0.0000
9484 O  60.7920  97.0420   8.2670 O 1 RES   0.0000
9485 Si  60.7920  98.4170   8.7530 Si 1 RES   0.0000
9486 O  60.7920  98.4170  10.2120 O 1 RES   0.0000
9487 O  65.5560  95.6660   6.3220 O 1 RES   0.0000
9488 Si  65.5560  95.6660   0.0000 Si 1 RES   0.0000
9489 O  65.5560  97.0420   0.4860 O 1 RES   0.0000
9490 Si  65.5560  98.4170   0.9730 Si 1 RES   0.0000
9491 O  66.7470  94.9790   0.4860 O 1 RES   0.0000
9492 O  64.3650  94.9790   0.4860 O 1 RES   0.0000
9493 O  65.5560  98.4170   2.4310 O 1 RES   0.0000
9494 Si  65.5560  98.4170   3.8900 Si 1 RES   0.0000
9495 O  65.5560  97.0420   4.3770 O 1 RES   0.0000
9496 Si  65.5560  95.6660   4.8630 Si 1 RES   0.0000
9497 O  66.7470  94.9790   4.3770 O 1 RES   0.0000
9498 O  64.3650  94.9790   4.3770 O 1 RES   0.0000
9499 Si  65.5560  95.6660   7.7810 Si 1 RES   0.0000
9500 O  66.7470  94.9790   8.2670 O 1 RES   0.0000
9501 O  64.3650  94.9790   8.2670 O 1 RES   0.0000
9502 O  65.5560  97.0420   8.2670 O 1 RES   0.0000
9503 Si  65.5560  98.4170   8.7530 Si 1 RES   0.0000
9504 O  65.5560  98.4170  10.2120 O 1 RES   0.0000
9505 O  67.9390  91.5400   6.3220 O 1 RES   0.0000
9506 Si  67.9390  91.5400   0.0000 Si 1 RES   0.0000
9507 O  67.9390  92.9160   0.4860 O 1 RES   0.0000
9508 Si  67.9390  94.2910   0.9730 Si 1 RES   0.0000
9509 O  69.1300  90.8530   0.4860 O 1 RES   0.0000
9510 O  66.7470  90.8530   0.4860 O 1 RES   0.0000
9511 O  67.9390  94.2910   2.4310 O 1 RES   0.0000
9512 Si  67.9390  94.2910   3.8900 Si 1 RES   0.0000
9513 O  67.9390  92.9160   4.3770 O 1 RES   0.0000
9514 Si  67.9390  91.5400   4.8630 Si 1 RES   0.0000
9515 O  69.1300  90.8530   4.3770 O 1 RES   0.0000
9516 O  66.7470  90.8530   4.3770 O 1 RES   0.0000
9517 Si  67.9390  91.5400   7.7810 Si 1 RES   0.0000
9518 O  69.1300  90.8530   8.2670 O 1 RES   0.0000
9519 O  66.7470  90.8530   8.2670 O 1 RES   0.0000
9520 O  67.9390  92.9160   8.2670 O 1 RES   0.0000
9521 Si  67.9390  94.2910   8.7530 Si 1 RES   0.0000
9522 O  67.9390  94.2910  10.2120 O 1 RES   0.0000
9523 O  72.7030  91.5400   6.3220 O 1 RES   0.0000
9524 Si  72.7030  91.5400   0.0000 Si 1 RES   0.0000
9525 O  72.7030  92.9160   0.4860 O 1 RES   0.0000
9526 Si  72.7030  94.2910   0.9730 Si 1 RES   0.0000
9527 O  73.8940  90.8530   0.4860 O 1 RES   0.0000
9528 O  71.5120  90.8530   0.4860 O 1 RES   0.0000
9529 O  72.7030  94.2910   2.4310 O 1 RES   0.0000
9530 Si  72.7030  94.2910   3.8900 Si 1 RES   0.0000
9531 O  72.7030  92.9160   4.3770 O 1 RES   0.0000
9532 Si  72.7030  91.5400   4.8630 Si 1 RES   0.0000
9533 O  73.8940  90.8530   4.3770 O 1 RES   0.0000
9534 O  71.5120  90.8530   4.3770 O 1 RES   0.0000
9535 Si  72.7030  91.5400   7.7810 Si 1 RES   0.0000
9536 O  73.8940  90.8530   8.2670 O 1 RES   0.0000
9537 O  71.5120  90.8530   8.2670 O 1 RES   0.0000
9538 O  72.7030  92.9160   8.2670 O 1 RES   0.0000
9539 Si  72.7030  94.2910   8.7530 Si 1 RES   0.0000
9540 O  72.7030  94.2910  10.2120 O 1 RES   0.0000
9541 O  70.3210  95.6660   6.3220 O 1 RES   0.0000
9542 Si  70.3210  95.6660   0.0000 Si 1 RES   0.0000
9543 O  70.3210  97.0420   0.4860 O 1 RES   0.0000
9544 Si  70.3210  98.4170   0.9730 Si 1 RES   0.0000
9545 O  71.5120  94.9790   0.4860 O 1 RES   0.0000
9546 O  69.1300  94.9790   0.4860 O 1 RES   0.0000
9547 O  70.3210  98.4170   2.4310 O 1 RES   0.0000
9548 Si  70.3210  98.4170   3.8900 Si 1 RES   0.0000
9549 O  70.3210  97.0420   4.3770 O 1 RES   0.0000
9550 Si  70.3210  95.6660   4.8630 Si 1 RES   0.0000
9551 O  71.5120  94.9790   4.3770 O 1 RES   0.0000
9552 O  69.1300  94.9790   4.3770 O 1 RES   0.0000
9553 Si  70.3210  95.6660   7.7810 Si 1 RES   0.0000
9554 O  71.5120  94.9790   8.2670 O 1 RES   0.0000
9555 O  69.1300  94.9790   8.2670 O 1 RES   0.0000
9556 O  70.3210  97.0420   8.2670 O 1 RES   0.0000
9557 Si  70.3210  98.4170   8.7530 Si 1 RES   0.0000
9558 O  70.3210  98.4170  10.2120 O 1 RES   0.0000
9559 O  75.0850  95.6660   6.3220 O 1 RES   0.0000
9560 Si  75.0850  95.6660   0.0000 Si 1 RES   0.0000
9561 O  75.0850  97.0420   0.4860 O 1 RES   0.0000
9562 Si  75.0850  98.4170   0.9730 Si 1 RES   0.0000
9563 O  76.2760  94.9790   0.4860 O 1 RES   0.0000
9564 O  73.8940  94.9790   0.4860 O 1 RES   0.0000
9565 O  75.0850  98.4170   2.4310 O 1 RES   0.0000
9566 Si  75.0850  98.4170   3.8900 Si 1 RES   0.0000
9567 O  75.0850  97.0420   4.3770 O 1 RES   0.0000
9568 Si  75.0850  95.6660   4.8630 Si 1 RES   0.0000
9569 O  76.2760  94.9790   4.3770 O 1 RES   0.0000
9570 O  73.8940  94.9790   4.3770 O 1 RES   0.0000
9571 Si  75.0850  95.6660   7.7810 Si 1 RES   0.0000
9572 O  76.2760  94.9790   8.2670 O 1 RES   0.0000
9573 O  73.8940  94.9790   8.2670 O 1 RES   0.0000
9574 O  75.0850  97.0420   8.2670 O 1 RES   0.0000
9575 Si  75.0850  98.4170   8.7530 Si 1 RES   0.0000
9576 O  75.0850  98.4170  10.2120 O 1 RES   0.0000
9577 O  77.4680  91.5400   6.3220 O 1 RES   0.0000
9578 Si  77.4680  91.5400   0.0000 Si 1 RES   0.0000
9579 O  77.4680  92.9160   0.4860 O 1 RES   0.0000
9580 Si  77.4680  94.2910   0.9730 Si 1 RES   0.0000
9581 O  78.6590  90.8530   0.4860 O 1 RES   0.0000
9582 O  76.2760  90.8530   0.4860 O 1 RES   0.0000
9583 O  77.4680  94.2910   2.4310 O 1 RES   0.0000
9584 Si  77.4680  94.2910   3.8900 Si 1 RES   0.0000
9585 O  77.4680  92.9160   4.3770 O 1 RES   0.0000
9586 Si  77.4680  91.5400   4.8630 Si 1 RES   0.0000
9587 O  78.6590  90.8530   4.3770 O 1 RES   0.0000
9588 O  76.2760  90.8530   4.3770 O 1 RES   0.0000
9589 Si  77.4680  91.5400   7.7810 Si 1 RES   0.0000
9590 O  78.6590  90.8530   8.2670 O 1 RES   0.0000
9591 O  76.2760  90.8530   8.2670 O 1 RES   0.0000
9592 O  77.4680  92.9160   8.2670 O 1 RES   0.0000
9593 Si  77.4680  94.2910   8.7530 Si 1 RES   0.0000
9594 O  77.4680  94.2910  10.2120 O 1 RES   0.0000
9595 O  82.2320  91.5400   6.3220 O 1 RES   0.0000
9596 Si  82.2320  91.5400   0.0000 Si 1 RES   0.0000
9597 O  82.2320  92.9160   0.4860 O 1 RES   0.0000
9598 Si  82.2320  94.2910   0.9730 Si 1 RES   0.0000
9599 O  83.4230  90.8530   0.4860 O 1 RES   0.0000
9600 O  81.0410  90.8530   0.4860 O 1 RES   0.0000
9601 O  82.2320  94.2910   2.4310 O 1 RES   0.0000
9602 Si  82.2320  94.2910   3.8900 Si 1 RES   0.0000
9603 O  82.2320  92.9160   4.3770 O 1 RES   0.0000
9604 Si  82.2320  91.5400   4.8630 Si 1 RES   0.0000
9605 O  83.4230  90.8530   4.3770 O 1 RES   0.0000
9606 O  81.0410  90.8530   4.3770 O 1 RES   0.0000
9607 Si  82.2320  91.5400   7.7810 Si 1 RES   0.0000
9608 O  83.4230  90.8530   8.2670 O 1 RES   0.0000
9609 O  81.0410  90.8530   8.2670 O 1 RES   0.0000
9610 O  82.2320  92.9160   8.2670 O 1 RES   0.0000
9611 Si  82.2320  94.2910   8.7530 Si 1 RES   0.0000
9612 O  82.2320  94.2910  10.2120 O 1 RES   0.0000
9613 O  79.8500  95.6660   6.3220 O 1 RES   0.0000
9614 Si  79.8500  95.6660   0.0000 Si 1 RES   0.0000
9615 O  79.8500  97.0420   0.4860 O 1 RES   0.0000
9616 Si  79.8500  98.4170   0.9730 Si 1 RES   0.0000
9617 O  81.0410  94.9790   0.4860 O 1 RES   0.0000
9618 O  78.6590  94.9790   0.4860 O 1 RES   0.0000
9619 O  79.8500  98.4170   2.4310 O 1 RES   0.0000
9620 Si  79.8500  98.4170   3.8900 Si 1 RES   0.0000
9621 O  79.8500  97.0420   4.3770 O 1 RES   0.0000
9622 Si  79.8500  95.6660   4.8630 Si 1 RES   0.0000
9623 O  81.0410  94.9790   4.3770 O 1 RES   0.0000
9624 O  78.6590  94.9790   4.3770 O 1 RES   0.0000
9625 Si  79.8500  95.6660   7.7810 Si 1 RES   0.0000
9626 O  81.0410  94.9790   8.2670 O 1 RES   0.0000
9627 O  78.6590  94.9790   8.2670 O 1 RES   0.0000
9628 O  79.8500  97.0420   8.2670 O 1 RES   0.0000
9629 Si  79.8500  98.4170   8.7530 Si 1 RES   0.0000
9630 O  79.8500  98.4170  10.2120 O 1 RES   0.0000
9631 O  84.6140  95.6660   6.3220 O 1 RES   0.0000
9632 Si  84.6140  95.6660   0.0000 Si 1 RES   0.0000
9633 O  84.6140  97.0420   0.4860 O 1 RES   0.0000
9634 Si  84.6140  98.4170   0.9730 Si 1 RES   0.0000
9635 O  85.8060  94.9790   0.4860 O 1 RES   0.0000
9636 O  83.4230  94.9790   0.4860 O 1 RES   0.0000
9637 O  84.6140  98.4170   2.4310 O 1 RES   0.0000
9638 Si  84.6140  98.4170   3.8900 Si 1 RES   0.0000
9639 O  84.6140  97.0420   4.3770 O 1 RES   0.0000
9640 Si  84.6140  95.6660   4.8630 Si 1 RES   0.0000
9641 O  85.8060  94.9790   4.3770 O 1 RES   0.0000
9642 O  83.4230  94.9790   4.3770 O 1 RES   0.0000
9643 Si  84.6140  95.6660   7.7810 Si 1 RES   0.0000
9644 O  85.8060  94.9790   8.2670 O 1 RES   0.0000
9645 O  83.4230  94.9790   8.2670 O 1 RES   0.0000
9646 O  84.6140  97.0420   8.2670 O 1 RES   0.0000
9647 Si  84.6140  98.4170   8.7530 Si 1 RES   0.0000
9648 O  84.6140  98.4170  10.2120 O 1 RES   0.0000
9649 O  86.9970  91.5400   6.3220 O 1 RES   0.0000
9650 Si  86.9970  91.5400   0.0000 Si 1 RES   0.0000
9651 O  86.9970  92.9160   0.4860 O 1 RES   0.0000
9652 Si  86.9970  94.2910   0.9730 Si 1 RES   0.0000
9653 O  88.1880  90.8530   0.4860 O 1 RES   0.0000
9654 O  85.8060  90.8530   0.4860 O 1 RES   0.0000
9655 O  86.9970  94.2910   2.4310 O 1 RES   0.0000
9656 Si  86.9970  94.2910   3.8900 Si 1 RES   0.0000
9657 O  86.9970  92.9160   4.3770 O 1 RES   0.0000
9658 Si  86.9970  91.5400   4.8630 Si 1 RES   0.0000
9659 O  88.1880  90.8530   4.3770 O 1 RES   0.0000
9660 O  85.8060  90.8530   4.3770 O 1 RES   0.0000
9661 Si  86.9970  91.5400   7.7810 Si 1 RES   0.0000
9662 O  88.1880  90.8530   8.2670 O 1 RES   0.0000
9663 O  85.8060  90.8530   8.2670 O 1 RES   0.0000
9664 O  86.9970  92.9160   8.2670 O 1 RES   0.0000
9665 Si  86.9970  94.2910   8.7530 Si 1 RES   0.0000
9666 O  86.9970  94.2910  10.2120 O 1 RES   0.0000
9667 O  91.7610  91.5400   6.3220 O 1 RES   0.0000
9668 Si  91.7610  91.5400   0.0000 Si 1 RES   0.0000
9669 O  91.7610  92.9160   0.4860 O 1 RES   0.0000
9670 Si  91.7610  94.2910   0.9730 Si 1 RES   0.0000
9671 O  92.9530  90.8530   0.4860 O 1 RES   0.0000
9672 O  90.5700  90.8530   0.4860 O 1 RES   0.0000
9673 O  91.7610  94.2910   2.4310 O 1 RES   0.0000
9674 Si  91.7610  94.2910   3.8900 Si 1 RES   0.0000
9675 O  91.7610  92.9160   4.3770 O 1 RES   0.0000
9676 Si  91.7610  91.5400   4.8630 Si 1 RES   0.0000
9677 O  92.9530  90.8530   4.3770 O 1 RES   0.0000
9678 O  90.5700  90.8530   4.3770 O 1 RES   0.0000
9679 Si  91.7610  91.5400   7.7810 Si 1 RES   0.0000
9680 O  92.9530  90.8530   8.2670 O 1 RES   0.0000
9681 O  90.5700  90.8530   8.2670 O 1 RES   0.0000
9682 O  91.7610  92.9160   8.2670 O 1 RES   0.0000
9683 Si  91.7610  94.2910   8.7530 Si 1 RES   0.0000
9684 O  91.7610  94.2910  10.2120 O 1 RES   0.0000
9685 O  89.3790  95.6660   6.3220 O 1 RES   0.0000
9686 Si  89.3790  95.6660   0.0000 Si 1 RES   0.0000
9687 O  89.3790  97.0420   0.4860 O 1 RES   0.0000
9688 Si  89.3790  98.4170   0.9730 Si 1 RES   0.0000
9689 O  90.5700  94.9790   0.4860 O 1 RES   0.0000
9690 O  88.1880  94.9790   0.4860 O 1 RES   0.0000
9691 O  89.3790  98.4170   2.4310 O 1 RES   0.0000
9692 Si  89.3790  98.4170   3.8900 Si 1 RES   0.0000
9693 O  89.3790  97.0420   4.3770 O 1 RES   0.0000
9694 Si  89.3790  95.6660   4.8630 Si 1 RES   0.0000
9695 O  90.5700  94.9790   4.3770 O 1 RES   0.0000
9696 O  88.1880  94.9790   4.3770 O 1 RES   0.0000
9697 Si  89.3790  95.6660   7.7810 Si 1 RES   0.0000
9698 O  90.5700  94.9790   8.2670 O 1 RES   0.0000
9699 O  88.1880  94.9790   8.2670 O 1 RES   0.0000
9700 O  89.3790  97.0420   8.2670 O 1 RES   0.0000
9701 Si  89.3790  98.4170   8.7530 Si 1 RES   0.0000
9702 O  89.3790  98.4170  10.2120 O 1 RES   0.0000
9703 O  94.1440  95.6660   6.3220 O 1 RES   0.0000
9704 Si  94.1440  95.6660   0.0000 Si 1 RES   0.0000
9705 O  94.1440  97.0420   0.4860 O 1 RES   0.0000
9706 Si  94.1440  98.4170   0.9730 Si 1 RES   0.0000
9707 O  47.6460  94.9790   0.4860 O 1 RES   0.0000
9708 O  92.9530  94.9790   0.4860 O 1 RES   0.0000
9709 O  94.1440  98.4170   2.4310 O 1 RES   0.0000
9710 Si  94.1440  98.4170   3.8900 Si 1 RES   0.0000
9711 O  94.1440  97.0420   4.3770 O 1 RES   0.0000
9712 Si  94.1440  95.6660   4.8630 Si 1 RES   0.0000
9713 O  47.6460  94.9790   4.3770 O 1 RES   0.0000
9714 O  92.9530  94.9790   4.3770 O 1 RES   0.0000
9715 Si  94.1440  95.6660   7.7810 Si 1 RES   0.0000
9716 O  47.6460  94.9790   8.2670 O 1 RES   0.0000
9717 O  92.9530  94.9790   8.2670 O 1 RES   0.0000
9718 O  94.1440  97.0420   8.2670 O 1 RES   0.0000
9719 Si  94.1440  98.4170   8.7530 Si 1 RES   0.0000
9720 O  94.1440  98.4170  10.2120 O 1 RES   0.0000
9721 O  48.8800  99.7930   6.3220 O 1 RES   0.0000
9722 Si  48.8800  99.7930   0.0000 Si 1 RES   0.0000
9723 O  48.8800 101.1680   0.4860 O 1 RES   0.0000
9724 Si  48.8800 102.5440   0.9730 Si 1 RES   0.0000
9725 O  50.0710  99.1050   0.4860 O 1 RES   0.0000
9726 O  47.6890  99.1050   0.4860 O 1 RES   0.0000
9727 O  48.8800 102.5440   2.4310 O 1 RES   0.0000
9728 Si  48.8800 102.5440   3.8900 Si 1 RES   0.0000
9729 O  48.8800 101.1680   4.3770 O 1 RES   0.0000
9730 Si  48.8800  99.7930   4.8630 Si 1 RES   0.0000
9731 O  50.0710  99.1050   4.3770 O 1 RES   0.0000
9732 O  47.6890  99.1050   4.3770 O 1 RES   0.0000
9733 Si  48.8800  99.7930   7.7810 Si 1 RES   0.0000
9734 O  50.0710  99.1050   8.2670 O 1 RES   0.0000
9735 O  47.6890  99.1050   8.2670 O 1 RES   0.0000
9736 O  48.8800 101.1680   8.2670 O 1 RES   0.0000
9737 Si  48.8800 102.5440   8.7530 Si 1 RES   0.0000
9738 O  48.8800 102.5440  10.2120 O 1 RES   0.0000
9739 O  53.6450  99.7930   6.3220 O 1 RES   0.0000
9740 Si  53.6450  99.7930   0.0000 Si 1 RES   0.0000
9741 O  53.6450 101.1680   0.4860 O 1 RES   0.0000
9742 Si  53.6450 102.5440   0.9730 Si 1 RES   0.0000
9743 O  54.8360  99.1050   0.4860 O 1 RES   0.0000
9744 O  52.4540  99.1050   0.4860 O 1 RES   0.0000
9745 O  53.6450 102.5440   2.4310 O 1 RES   0.0000
9746 Si  53.6450 102.5440   3.8900 Si 1 RES   0.0000
9747 O  53.6450 101.1680   4.3770 O 1 RES   0.0000
9748 Si  53.6450  99.7930   4.8630 Si 1 RES   0.0000
9749 O  54.8360  99.1050   4.3770 O 1 RES   0.0000
9750 O  52.4540  99.1050   4.3770 O 1 RES   0.0000
9751 Si  53.6450  99.7930   7.7810 Si 1 RES   0.0000
9752 O  54.8360  99.1050   8.2670 O 1 RES   0.0000
9753 O  52.4540  99.1050   8.2670 O 1 RES   0.0000
9754 O  53.6450 101.1680   8.2670 O 1 RES   0.0000
9755 Si  53.6450 102.5440   8.7530 Si 1 RES   0.0000
9756 O  53.6450 102.5440  10.2120 O 1 RES   0.0000
9757 O  51.2620 103.9190   6.3220 O 1 RES   0.0000
9758 Si  51.2620 103.9190   0.0000 Si 1 RES   0.0000
9759 O  51.2620 105.2940   0.4860 O 1 RES   0.0000
9760 Si  51.2620 106.6700   0.9730 Si 1 RES   0.0000
9761 O  52.4540 103.2310   0.4860 O 1 RES   0.0000
9762 O  50.0710 103.2310   0.4860 O 1 RES   0.0000
9763 O  51.2620 106.6700   2.4310 O 1 RES   0.0000
9764 Si  51.2620 106.6700   3.8900 Si 1 RES   0.0000
9765 O  51.2620 105.2940   4.3770 O 1 RES   0.0000
9766 Si  51.2620 103.9190   4.8630 Si 1 RES   0.0000
9767 O  52.4540 103.2310   4.3770 O 1 RES   0.0000
9768 O  50.0710 103.2310   4.3770 O 1 RES   0.0000
9769 Si  51.2620 103.9190   7.7810 Si 1 RES   0.0000
9770 O  52.4540 103.2310   8.2670 O 1 RES   0.0000
9771 O  50.0710 103.2310   8.2670 O 1 RES   0.0000
9772 O  51.2620 105.2940   8.2670 O 1 RES   0.0000
9773 Si  51.2620 106.6700   8.7530 Si 1 RES   0.0000
9774 O  51.2620 106.6700  10.2120 O 1 RES   0.0000
9775 O  56.0270 103.9190   6.3220 O 1 RES   0.0000
9776 Si  56.0270 103.9190   0.0000 Si 1 RES   0.0000
9777 O  56.0270 105.2940   0.4860 O 1 RES   0.0000
9778 Si  56.0270 106.6700   0.9730 Si 1 RES   0.0000
9779 O  57.2180 103.2310   0.4860 O 1 RES   0.0000
9780 O  54.8360 103.2310   0.4860 O 1 RES   0.0000
9781 O  56.0270 106.6700   2.4310 O 1 RES   0.0000
9782 Si  56.0270 106.6700   3.8900 Si 1 RES   0.0000
9783 O  56.0270 105.2940   4.3770 O 1 RES   0.0000
9784 Si  56.0270 103.9190   4.8630 Si 1 RES   0.0000
9785 O  57.2180 103.2310   4.3770 O 1 RES   0.0000
9786 O  54.8360 103.2310   4.3770 O 1 RES   0.0000
9787 Si  56.0270 103.9190   7.7810 Si 1 RES   0.0000
9788 O  57.2180 103.2310   8.2670 O 1 RES   0.0000
9789 O  54.8360 103.2310   8.2670 O 1 RES   0.0000
9790 O  56.0270 105.2940   8.2670 O 1 RES   0.0000
9791 Si  56.0270 106.6700   8.7530 Si 1 RES   0.0000
9792 O  56.0270 106.6700  10.2120 O 1 RES   0.0000
9793 O  58.4090  99.7930   6.3220 O 1 RES   0.0000
9794 Si  58.4090  99.7930   0.0000 Si 1 RES   0.0000
9795 O  58.4090 101.1680   0.4860 O 1 RES   0.0000
9796 Si  58.4090 102.5440   0.9730 Si 1 RES   0.0000
9797 O  59.6010  99.1050   0.4860 O 1 RES   0.0000
9798 O  57.2180  99.1050   0.4860 O 1 RES   0.0000
9799 O  58.4090 102.5440   2.4310 O 1 RES   0.0000
9800 Si  58.4090 102.5440   3.8900 Si 1 RES   0.0000
9801 O  58.4090 101.1680   4.3770 O 1 RES   0.0000
9802 Si  58.4090  99.7930   4.8630 Si 1 RES   0.0000
9803 O  59.6010  99.1050   4.3770 O 1 RES   0.0000
9804 O  57.2180  99.1050   4.3770 O 1 RES   0.0000
9805 Si  58.4090  99.7930   7.7810 Si 1 RES   0.0000
9806 O  59.6010  99.1050   8.2670 O 1 RES   0.0000
9807 O  57.2180  99.1050   8.2670 O 1 RES   0.0000
9808 O  58.4090 101.1680   8.2670 O 1 RES   0.0000
9809 Si  58.4090 102.5440   8.7530 Si 1 RES   0.0000
9810 O  58.4090 102.5440  10.2120 O 1 RES   0.0000
9811 O  63.1740  99.7930   6.3220 O 1 RES   0.0000
9812 Si  63.1740  99.7930   0.0000 Si 1 RES   0.0000
9813 O  63.1740 101.1680   0.4860 O 1 RES   0.0000
9814 Si  63.1740 102.5440   0.9730 Si 1 RES   0.0000
9815 O  64.3650  99.1050   0.4860 O 1 RES   0.0000
9816 O  61.9830  99.1050   0.4860 O 1 RES   0.0000
9817 O  63.1740 102.5440   2.4310 O 1 RES   0.0000
9818 Si  63.1740 102.5440   3.8900 Si 1 RES   0.0000
9819 O  63.1740 101.1680   4.3770 O 1 RES   0.0000
9820 Si  63.1740  99.7930   4.8630 Si 1 RES   0.0000
9821 O  64.3650  99.1050   4.3770 O 1 RES   0.0000
9822 O  61.9830  99.1050   4.3770 O 1 RES   0.0000
9823 Si  63.1740  99.7930   7.7810 Si 1 RES   0.0000
9824 O  64.3650  99.1050   8.2670 O 1 RES   0.0000
9825 O  61.9830  99.1050   8.2670 O 1 RES   0.0000
9826 O  63.1740 101.1680   8.2670 O 1 RES   0.0000
9827 Si  63.1740 102.5440   8.7530 Si 1 RES   0.0000
9828 O  63.1740 102.5440  10.2120 O 1 RES   0.0000
9829 O  60.7920 103.9190   6.3220 O 1 RES   0.0000
9830 Si  60.7920 103.9190   0.0000 Si 1 RES   0.0000
9831 O  60.7920 105.2940   0.4860 O 1 RES   0.0000
9832 Si  60.7920 106.6700   0.9730 Si 1 RES   0.0000
9833 O  61.9830 103.2310   0.4860 O 1 RES   0.0000
9834 O  59.6010 103.2310   0.4860 O 1 RES   0.0000
9835 O  60.7920 106.6700   2.4310 O 1 RES   0.0000
9836 Si  60.7920 106.6700   3.8900 Si 1 RES   0.0000
9837 O  60.7920 105.2940   4.3770 O 1 RES   0.0000
9838 Si  60.7920 103.9190   4.8630 Si 1 RES   0.0000
9839 O  61.9830 103.2310   4.3770 O 1 RES   0.0000
9840 O  59.6010 103.2310   4.3770 O 1 RES   0.0000
9841 Si  60.7920 103.9190   7.7810 Si 1 RES   0.0000
9842 O  61.9830 103.2310   8.2670 O 1 RES   0.0000
9843 O  59.6010 103.2310   8.2670 O 1 RES   0.0000
9844 O  60.7920 105.2940   8.2670 O 1 RES   0.0000
9845 Si  60.7920 106.6700   8.7530 Si 1 RES   0.0000
9846 O  60.7920 106.6700  10.2120 O 1 RES   0.0000
9847 O  65.5560 103.9190   6.3220 O 1 RES   0.0000
9848 Si  65.5560 103.9190   0.0000 Si 1 RES   0.0000
9849 O  65.5560 105.2940   0.4860 O 1 RES   0.0000
9850 Si  65.5560 106.6700   0.9730 Si 1 RES   0.0000
9851 O  66.7470 103.2310   0.4860 O 1 RES   0.0000
9852 O  64.3650 103.2310   0.4860 O 1 RES   0.0000
9853 O  65.5560 106.6700   2.4310 O 1 RES   0.0000
9854 Si  65.5560 106.6700   3.8900 Si 1 RES   0.0000
9855 O  65.5560 105.2940   4.3770 O 1 RES   0.0000
9856 Si  65.5560 103.9190   4.8630 Si 1 RES   0.0000
9857 O  66.7470 103.2310   4.3770 O 1 RES   0.0000
9858 O  64.3650 103.2310   4.3770 O 1 RES   0.0000
9859 Si  65.5560 103.9190   7.7810 Si 1 RES   0.0000
9860 O  66.7470 103.2310   8.2670 O 1 RES   0.0000
9861 O  64.3650 103.2310   8.2670 O 1 RES   0.0000
9862 O  65.5560 105.2940   8.2670 O 1 RES   0.0000
9863 Si  65.5560 106.6700   8.7530 Si 1 RES   0.0000
9864 O  65.5560 106.6700  10.2120 O 1 RES   0.0000
9865 O  67.9390  99.7930   6.3220 O 1 RES   0.0000
9866 Si  67.9390  99.7930   0.0000 Si 1 RES   0.0000
9867 O  67.9390 101.1680   0.4860 O 1 RES   0.0000
9868 Si  67.9390 102.5440   0.9730 Si 1 RES   0.0000
9869 O  69.1300  99.1050   0.4860 O 1 RES   0.0000
9870 O  66.7470  99.1050   0.4860 O 1 RES   0.0000
9871 O  67.9390 102.5440   2.4310 O 1 RES   0.0000
9872 Si  67.9390 102.5440   3.8900 Si 1 RES   0.0000
9873 O  67.9390 101.1680   4.3770 O 1 RES   0.0000
9874 Si  67.9390  99.7930   4.8630 Si 1 RES   0.0000
9875 O  69.1300  99.1050   4.3770 O 1 RES   0.0000
9876 O  66.7470  99.1050   4.3770 O 1 RES   0.0000
9877 Si  67.9390  99.7930   7.7810 Si 1 RES   0.0000
9878 O  69.1300  99.1050   8.2670 O 1 RES   0.0000
9879 O  66.7470  99.1050   8.2670 O 1 RES   0.0000
9880 O  67.9390 101.1680   8.2670 O 1 RES   0.0000
9881 Si  67.9390 102.5440   8.7530 Si 1 RES   0.0000
9882 O  67.9390 102.5440  10.2120 O 1 RES   0.0000
9883 O  72.7030  99.7930   6.3220 O 1 RES   0.0000
9884 Si  72.7030  99.7930   0.0000 Si 1 RES   0.0000
9885 O  72.7030 101.1680   0.4860 O 1 RES   0.0000
9886 Si  72.7030 102.5440   0.9730 Si 1 RES   0.0000
9887 O  73.8940  99.1050   0.4860 O 1 RES   0.0000
9888 O  71.5120  99.1050   0.4860 O 1 RES   0.0000
9889 O  72.7030 102.5440   2.4310 O 1 RES   0.0000
9890 Si  72.7030 102.5440   3.8900 Si 1 RES   0.0000
9891 O  72.7030 101.1680   4.3770 O 1 RES   0.0000
9892 Si  72.7030  99.7930   4.8630 Si 1 RES   0.0000
9893 O  73.8940  99.1050   4.3770 O 1 RES   0.0000
9894 O  71.5120  99.1050   4.3770 O 1 RES   0.0000
9895 Si  72.7030  99.7930   7.7810 Si 1 RES   0.0000
9896 O  73.8940  99.1050   8.2670 O 1 RES   0.0000
9897 O  71.5120  99.1050   8.2670 O 1 RES   0.0000
9898 O  72.7030 101.1680   8.2670 O 1 RES   0.0000
9899 Si  72.7030 102.5440   8.7530 Si 1 RES   0.0000
9900 O  72.7030 102.5440  10.2120 O 1 RES   0.0000
9901 O  70.3210 103.9190   6.3220 O 1 RES   0.0000
9902 Si  70.3210 103.9190   0.0000 Si 1 RES   0.0000
9903 O  70.3210 105.2940   0.4860 O 1 RES   0.0000
9904 Si  70.3210 106.6700   0.9730 Si 1 RES   0.0000
9905 O  71.5120 103.2310   0.4860 O 1 RES   0.0000
9906 O  69.1300 103.2310   0.4860 O 1 RES   0.0000
9907 O  70.3210 106.6700   2.4310 O 1 RES   0.0000
9908 Si  70.3210 106.6700   3.8900 Si 1 RES   0.0000
9909 O  70.3210 105.2940   4.3770 O 1 RES   0.0000
9910 Si  70.3210 103.9190   4.8630 Si 1 RES   0.0000
9911 O  71.5120 103.2310   4.3770 O 1 RES   0.0000
9912 O  69.1300 103.2310   4.3770 O 1 RES   0.0000
9913 Si  70.3210 103.9190   7.7810 Si 1 RES   0.0000
9914 O  71.5120 103.2310   8.2670 O 1 RES   0.0000
9915 O  69.1300 103.2310   8.2670 O 1 RES   0.0000
9916 O  70.3210 105.2940   8.2670 O 1 RES   0.0000
9917 Si  70.3210 106.6700   8.7530 Si 1 RES   0.0000
9918 O  70.3210 106.6700  10.2120 O 1 RES   0.0000
9919 O  75.0850 103.9190   6.3220 O 1 RES   0.0000
9920 Si  75.0850 103.9190   0.0000 Si 1 RES   0.0000
9921 O  75.0850 105.2940   0.4860 O 1 RES   0.0000
9922 Si  75.0850 106.6700   0.9730 Si 1 RES   0.0000
9923 O  76.2760 103.2310   0.4860 O 1 RES   0.0000
9924 O  73.8940 103.2310   0.4860 O 1 RES   0.0000
9925 O  75.0850 106.6700   2.4310 O 1 RES   0.0000
9926 Si  75.0850 106.6700   3.8900 Si 1 RES   0.0000
9927 O  75.0850 105.2940   4.3770 O 1 RES   0.0000
9928 Si  75.0850 103.9190   4.8630 Si 1 RES   0.0000
9929 O  76.2760 103.2310   4.3770 O 1 RES   0.0000
9930 O  73.8940 103.2310   4.3770 O 1 RES   0.0000
9931 Si  75.0850 103.9190   7.7810 Si 1 RES   0.0000
9932 O  76.2760 103.2310   8.2670 O 1 RES   0.0000
9933 O  73.8940 103.2310   8.2670 O 1 RES   0.0000
9934 O  75.0850 105.2940   8.2670 O 1 RES   0.0000
9935 Si  75.0850 106.6700   8.7530 Si 1 RES   0.0000
9936 O  75.0850 106.6700  10.2120 O 1 RES   0.0000
9937 O  77.4680  99.7930   6.3220 O 1 RES   0.0000
9938 Si  77.4680  99.7930   0.0000 Si 1 RES   0.0000
9939 O  77.4680 101.1680   0.4860 O 1 RES   0.0000
9940 Si  77.4680 102.5440   0.9730 Si 1 RES   0.0000
9941 O  78.6590  99.1050   0.4860 O 1 RES   0.0000
9942 O  76.2760  99.1050   0.4860 O 1 RES   0.0000
9943 O  77.4680 102.5440   2.4310 O 1 RES   0.0000
9944 Si  77.4680 102.5440   3.8900 Si 1 RES   0.0000
9945 O  77.4680 101.1680   4.3770 O 1 RES   0.0000
9946 Si  77.4680  99.7930   4.8630 Si 1 RES   0.0000
9947 O  78.6590  99.1050   4.3770 O 1 RES   0.0000
9948 O  76.2760  99.1050   4.3770 O 1 RES   0.0000
9949 Si  77.4680  99.7930   7.7810 Si 1 RES   0.0000
9950 O  78.6590  99.1050   8.2670 O 1 RES   0.0000
9951 O  76.2760  99.1050   8.2670 O 1 RES   0.0000
9952 O  77.4680 101.1680   8.2670 O 1 RES   0.0000
9953 Si  77.4680 102.5440   8.7530 Si 1 RES   0.0000
9954 O  77.4680 102.5440  10.2120 O 1 RES   0.0000
9955 O  82.2320  99.7930   6.3220 O 1 RES   0.0000
9956 Si  82.2320  99.7930   0.0000 Si 1 RES   0.0000
9957 O  82.2320 101.1680   0.4860 O 1 RES   0.0000
9958 Si  82.2320 102.5440   0.9730 Si 1 RES   0.0000
9959 O  83.4230  99.1050   0.4860 O 1 RES   0.0000
9960 O  81.0410  99.1050   0.4860 O 1 RES   0.0000
9961 O  82.2320 102.5440   2.4310 O 1 RES   0.0000
9962 Si  82.2320 102.5440   3.8900 Si 1 RES   0.0000
9963 O  82.2320 101.1680   4.3770 O 1 RES   0.0000
9964 Si  82.2320  99.7930   4.8630 Si 1 RES   0.0000
9965 O  83.4230  99.1050   4.3770 O 1 RES   0.0000
9966 O  81.0410  99.1050   4.3770 O 1 RES   0.0000
9967 Si  82.2320  99.7930   7.7810 Si 1 RES   0.0000
9968 O  83.4230  99.1050   8.2670 O 1 RES   0.0000
9969 O  81.0410  99.1050   8.2670 O 1 RES   0.0000
9970 O  82.2320 101.1680   8.2670 O 1 RES   0.0000
9971 Si  82.2320 102.5440   8.7530 Si 1 RES   0.0000
9972 O  82.2320 102.5440  10.2120 O 1 RES   0.0000
9973 O  79.8500 103.9190   6.3220 O 1 RES   0.0000
9974 Si  79.8500 103.9190   0.0000 Si 1 RES   0.0000
9975 O  79.8500 105.2940   0.4860 O 1 RES   0.0000
9976 Si  79.8500 106.6700   0.9730 Si 1 RES   0.0000
9977 O  81.0410 103.2310   0.4860 O 1 RES   0.0000
9978 O  78.6590 103.2310   0.4860 O 1 RES   0.0000
9979 O  79.8500 106.6700   2.4310 O 1 RES   0.0000
9980 Si  79.8500 106.6700   3.8900 Si 1 RES   0.0000
9981 O  79.8500 105.2940   4.3770 O 1 RES   0.0000
9982 Si  79.8500 103.9190   4.8630 Si 1 RES   0.0000
9983 O  81.0410 103.2310   4.3770 O 1 RES   0.0000
9984 O  78.6590 103.2310   4.3770 O 1 RES   0.0000
9985 Si  79.8500 103.9190   7.7810 Si 1 RES   0.0000
9986 O  81.0410 103.2310   8.2670 O 1 RES   0.0000
9987 O  78.6590 103.2310   8.2670 O 1 RES   0.0000
9988 O  79.8500 105.2940   8.2670 O 1 RES   0.0000
9989 Si  79.8500 106.6700   8.7530 Si 1 RES   0.0000
9990 O  79.8500 106.6700  10.2120 O 1 RES   0.0000
9991 O  84.6140 103.9190   6.3220 O 1 RES   0.0000
9992 Si  84.6140 103.9190   0.0000 Si 1 RES   0.0000
9993 O  84.6140 105.2940   0.4860 O 1 RES   0.0000
9994 Si  84.6140 106.6700   0.9730 Si 1 RES   0.0000
9995 O  85.8060 103.2310   0.4860 O 1 RES   0.0000
9996 O  83.4230 103.2310   0.4860 O 1 RES   0.0000
9997 O  84.6140 106.6700   2.4310 O 1 RES   0.0000
9998 Si  84.6140 106.6700   3.8900 Si 1 RES   0.0000
9999 O  84.6140 105.2940   4.3770 O 1 RES   0.0000
10000 Si  84.6140 103.9190   4.8630 Si 1 RES   0.0000
10001 O  85.8060 103.2310   4.3770 O 1 RES   0.0000
10002 O  83.4230 103.2310   4.3770 O 1 RES   0.0000
10003 Si  84.6140 103.9190   7.7810 Si 1 RES   0.0000
10004 O  85.8060 103.2310   8.2670 O 1 RES   0.0000
10005 O  83.4230 103.2310   8.2670 O 1 RES   0.0000
10006 O  84.6140 105.2940   8.2670 O 1 RES   0.0000
10007 Si  84.6140 106.6700   8.7530 Si 1 RES   0.0000
10008 O  84.6140 106.6700  10.2120 O 1 RES   0.0000
10009 O  86.9970  99.7930   6.3220 O 1 RES   0.0000
10010 Si  86.9970  99.7930   0.0000 Si 1 RES   0.0000
10011 O  86.9970 101.1680   0.4860 O 1 RES   0.0000
10012 Si  86.9970 102.5440   0.9730 Si 1 RES   0.0000
10013 O  88.1880  99.1050   0.4860 O 1 RES   0.0000
10014 O  85.8060  99.1050   0.4860 O 1 RES   0.0000
10015 O  86.9970 102.5440   2.4310 O 1 RES   0.0000
10016 Si  86.9970 102.5440   3.8900 Si 1 RES   0.0000
10017 O  86.9970 101.1680   4.3770 O 1 RES   0.0000
10018 Si  86.9970  99.7930   4.8630 Si 1 RES   0.0000
10019 O  88.1880  99.1050   4.3770 O 1 RES   0.0000
10020 O  85.8060  99.1050   4.3770 O 1 RES   0.0000
10021 Si  86.9970  99.7930   7.7810 Si 1 RES   0.0000
10022 O  88.1880  99.1050   8.2670 O 1 RES   0.0000
10023 O  85.8060  99.1050   8.2670 O 1 RES   0.0000
10024 O  86.9970 101.1680   8.2670 O 1 RES   0.0000
10025 Si  86.9970 102.5440   8.7530 Si 1 RES   0.0000
10026 O  86.9970 102.5440  10.2120 O 1 RES   0.0000
10027 O  91.7610  99.7930   6.3220 O 1 RES   0.0000
10028 Si  91.7610  99.7930   0.0000 Si 1 RES   0.0000
10029 O  91.7610 101.1680   0.4860 O 1 RES   0.0000
10030 Si  91.7610 102.5440   0.9730 Si 1 RES   0.0000
10031 O  92.9530  99.1050   0.4860 O 1 RES   0.0000
10032 O  90.5700  99.1050   0.4860 O 1 RES   0.0000
10033 O  91.7610 102.5440   2.4310 O 1 RES   0.0000
10034 Si  91.7610 102.5440   3.8900 Si 1 RES   0.0000
10035 O  91.7610 101.1680   4.3770 O 1 RES   0.0000
10036 Si  91.7610  99.7930   4.8630 Si 1 RES   0.0000
10037 O  92.9530  99.1050   4.3770 O 1 RES   0.0000
10038 O  90.5700  99.1050   4.3770 O 1 RES   0.0000
10039 Si  91.7610  99.7930   7.7810 Si 1 RES   0.0000
10040 O  92.9530  99.1050   8.2670 O 1 RES   0.0000
10041 O  90.5700  99.1050   8.2670 O 1 RES   0.0000
10042 O  91.7610 101.1680   8.2670 O 1 RES   0.0000
10043 Si  91.7610 102.5440   8.7530 Si 1 RES   0.0000
10044 O  91.7610 102.5440  10.2120 O 1 RES   0.0000
10045 O  89.3790 103.9190   6.3220 O 1 RES   0.0000
10046 Si  89.3790 103.9190   0.0000 Si 1 RES   0.0000
10047 O  89.3790 105.2940   0.4860 O 1 RES   0.0000
10048 Si  89.3790 106.6700   0.9730 Si 1 RES   0.0000
10049 O  90.5700 103.2310   0.4860 O 1 RES   0.0000
10050 O  88.1880 103.2310   0.4860 O 1 RES   0.0000
10051 O  89.3790 106.6700   2.4310 O 1 RES   0.0000
10052 Si  89.3790 106.6700   3.8900 Si 1 RES   0.0000
10053 O  89.3790 105.2940   4.3770 O 1 RES   0.0000
10054 Si  89.3790 103.9190   4.8630 Si 1 RES   0.0000
10055 O  90.5700 103.2310   4.3770 O 1 RES   0.0000
10056 O  88.1880 103.2310   4.3770 O 1 RES   0.0000
10057 Si  89.3790 103.9190   7.7810 Si 1 RES   0.0000
10058 O  90.5700 103.2310   8.2670 O 1 RES   0.0000
10059 O  88.1880 103.2310   8.2670 O 1 RES   0.0000
10060 O  89.3790 105.2940   8.2670 O 1 RES   0.0000
10061 Si  89.3790 106.6700   8.7530 Si 1 RES   0.0000
10062 O  89.3790 106.6700  10.2120 O 1 RES   0.0000
10063 O  94.1440 103.9190   6.3220 O 1 RES   0.0000
10064 Si  94.1440 103.9190   0.0000 Si 1 RES   0.0000
10065 O  94.1440 105.2940   0.4860 O 1 RES   0.0000
10066 Si  94.1440 106.6700   0.9730 Si 1 RES   0.0000
10067 O  47.6460 103.2310   0.4860 O 1 RES   0.0000
10068 O  92.9530 103.2310   0.4860 O 1 RES   0.0000
10069 O  94.1440 106.6700   2.4310 O 1 RES   0.0000
10070 Si  94.1440 106.6700   3.8900 Si 1 RES   0.0000
10071 O  94.1440 105.2940   4.3770 O 1 RES   0.0000
10072 Si  94.1440 103.9190   4.8630 Si 1 RES   0.0000
10073 O  47.6460 103.2310   4.3770 O 1 RES   0.0000
10074 O  92.9530 103.2310   4.3770 O 1 RES   0.0000
10075 Si  94.1440 103.9190   7.7810 Si 1 RES   0.0000
10076 O  47.6460 103.2310   8.2670 O 1 RES   0.0000
10077 O  92.9530 103.2310   8.2670 O 1 RES   0.0000
10078 O  94.1440 105.2940   8.2670 O 1 RES   0.0000
10079 Si  94.1440 106.6700   8.7530 Si 1 RES   0.0000
10080 O  94.1440 106.6700  10.2120 O 1 RES   0.0000
10081 O  48.8800 108.0450   6.3220 O 1 RES   0.0000
10082 Si  48.8800 108.0450   0.0000 Si 1 RES   0.0000
10083 O  48.8800 109.4210   0.4860 O 1 RES   0.0000
10084 Si  48.8800 110.7960   0.9730 Si 1 RES   0.0000
10085 O  50.0710 107.3580   0.4860 O 1 RES   0.0000
10086 O  47.6890 107.3580   0.4860 O 1 RES   0.0000
10087 O  48.8800 110.7960   2.4310 O 1 RES   0.0000
10088 Si  48.8800 110.7960   3.8900 Si 1 RES   0.0000
10089 O  48.8800 109.4210   4.3770 O 1 RES   0.0000
10090 Si  48.8800 108.0450   4.8630 Si 1 RES   0.0000
10091 O  50.0710 107.3580   4.3770 O 1 RES   0.0000
10092 O  47.6890 107.3580   4.3770 O 1 RES   0.0000
10093 Si  48.8800 108.0450   7.7810 Si 1 RES   0.0000
10094 O  50.0710 107.3580   8.2670 O 1 RES   0.0000
10095 O  47.6890 107.3580   8.2670 O 1 RES   0.0000
10096 O  48.8800 109.4210   8.2670 O 1 RES   0.0000
10097 Si  48.8800 110.7960   8.7530 Si 1 RES   0.0000
10098 O  48.8800 110.7960  10.2120 O 1 RES   0.0000
10099 O  53.6450 108.0450   6.3220 O 1 RES   0.0000
10100 Si  53.6450 108.0450   0.0000 Si 1 RES   0.0000
10101 O  53.6450 109.4210   0.4860 O 1 RES   0.0000
10102 Si  53.6450 110.7960   0.9730 Si 1 RES   0.0000
10103 O  54.8360 107.3580   0.4860 O 1 RES   0.0000
10104 O  52.4540 107.3580   0.4860 O 1 RES   0.0000
10105 O  53.6450 110.7960   2.4310 O 1 RES   0.0000
10106 Si  53.6450 110.7960   3.8900 Si 1 RES   0.0000
10107 O  53.6450 109.4210   4.3770 O 1 RES   0.0000
10108 Si  53.6450 108.0450   4.8630 Si 1 RES   0.0000
10109 O  54.8360 107.3580   4.3770 O 1 RES   0.0000
10110 O  52.4540 107.3580   4.3770 O 1 RES   0.0000
10111 Si  53.6450 108.0450   7.7810 Si 1 RES   0.0000
10112 O  54.8360 107.3580   8.2670 O 1 RES   0.0000
10113 O  52.4540 107.3580   8.2670 O 1 RES   0.0000
10114 O  53.6450 109.4210   8.2670 O 1 RES   0.0000
10115 Si  53.6450 110.7960   8.7530 Si 1 RES   0.0000
10116 O  53.6450 110.7960  10.2120 O 1 RES   0.0000
10117 O  51.2620 112.1720   6.3220 O 1 RES   0.0000
10118 Si  51.2620 112.1720   0.0000 Si 1 RES   0.0000
10119 O  51.2620 113.5470   0.4860 O 1 RES   0.0000
10120 Si  51.2620 114.9220   0.9730 Si 1 RES   0.0000
10121 O  52.4540 111.4840   0.4860 O 1 RES   0.0000
10122 O  50.0710 111.4840   0.4860 O 1 RES   0.0000
10123 O  51.2620 114.9220   2.4310 O 1 RES   0.0000
10124 Si  51.2620 114.9220   3.8900 Si 1 RES   0.0000
10125 O  51.2620 113.5470   4.3770 O 1 RES   0.0000
10126 Si  51.2620 112.1720   4.8630 Si 1 RES   0.0000
10127 O  52.4540 111.4840   4.3770 O 1 RES   0.0000
10128 O  50.0710 111.4840   4.3770 O 1 RES   0.0000
10129 Si  51.2620 112.1720   7.7810 Si 1 RES   0.0000
10130 O  52.4540 111.4840   8.2670 O 1 RES   0.0000
10131 O  50.0710 111.4840   8.2670 O 1 RES   0.0000
10132 O  51.2620 113.5470   8.2670 O 1 RES   0.0000
10133 Si  51.2620 114.9220   8.7530 Si 1 RES   0.0000
10134 O  51.2620 114.9220  10.2120 O 1 RES   0.0000
10135 O  56.0270 112.1720   6.3220 O 1 RES   0.0000
10136 Si  56.0270 112.1720   0.0000 Si 1 RES   0.0000
10137 O  56.0270 113.5470   0.4860 O 1 RES   0.0000
10138 Si  56.0270 114.9220   0.9730 Si 1 RES   0.0000
10139 O  57.2180 111.4840   0.4860 O 1 RES   0.0000
10140 O  54.8360 111.4840   0.4860 O 1 RES   0.0000
10141 O  56.0270 114.9220   2.4310 O 1 RES   0.0000
10142 Si  56.0270 114.9220   3.8900 Si 1 RES   0.0000
10143 O  56.0270 113.5470   4.3770 O 1 RES   0.0000
10144 Si  56.0270 112.1720   4.8630 Si 1 RES   0.0000
10145 O  57.2180 111.4840   4.3770 O 1 RES   0.0000
10146 O  54.8360 111.4840   4.3770 O 1 RES   0.0000
10147 Si  56.0270 112.1720   7.7810 Si 1 RES   0.0000
10148 O  57.2180 111.4840   8.2670 O 1 RES   0.0000
10149 O  54.8360 111.4840   8.2670 O 1 RES   0.0000
10150 O  56.0270 113.5470   8.2670 O 1 RES   0.0000
10151 Si  56.0270 114.9220   8.7530 Si 1 RES   0.0000
10152 O  56.0270 114.9220  10.2120 O 1 RES   0.0000
10153 O  58.4090 108.0450   6.3220 O 1 RES   0.0000
10154 Si  58.4090 108.0450   0.0000 Si 1 RES   0.0000
10155 O  58.4090 109.4210   0.4860 O 1 RES   0.0000
10156 Si  58.4090 110.7960   0.9730 Si 1 RES   0.0000
10157 O  59.6010 107.3580   0.4860 O 1 RES   0.0000
10158 O  57.2180 107.3580   0.4860 O 1 RES   0.0000
10159 O  58.4090 110.7960   2.4310 O 1 RES   0.0000
10160 Si  58.4090 110.7960   3.8900 Si 1 RES   0.0000
10161 O  58.4090 109.4210   4.3770 O 1 RES   0.0000
10162 Si  58.4090 108.0450   4.8630 Si 1 RES   0.0000
10163 O  59.6010 107.3580   4.3770 O 1 RES   0.0000
10164 O  57.2180 107.3580   4.3770 O 1 RES   0.0000
10165 Si  58.4090 108.0450   7.7810 Si 1 RES   0.0000
10166 O  59.6010 107.3580   8.2670 O 1 RES   0.0000
10167 O  57.2180 107.3580   8.2670 O 1 RES   0.0000
10168 O  58.4090 109.4210   8.2670 O 1 RES   0.0000
10169 Si  58.4090 110.7960   8.7530 Si 1 RES   0.0000
10170 O  58.4090 110.7960  10.2120 O 1 RES   0.0000
10171 O  63.1740 108.0450   6.3220 O 1 RES   0.0000
10172 Si  63.1740 108.0450   0.0000 Si 1 RES   0.0000
10173 O  63.1740 109.4210   0.4860 O 1 RES   0.0000
10174 Si  63.1740 110.7960   0.9730 Si 1 RES   0.0000
10175 O  64.3650 107.3580   0.4860 O 1 RES   0.0000
10176 O  61.9830 107.3580   0.4860 O 1 RES   0.0000
10177 O  63.1740 110.7960   2.4310 O 1 RES   0.0000
10178 Si  63.1740 110.7960   3.8900 Si 1 RES   0.0000
10179 O  63.1740 109.4210   4.3770 O 1 RES   0.0000
10180 Si  63.1740 108.0450   4.8630 Si 1 RES   0.0000
10181 O  64.3650 107.3580   4.3770 O 1 RES   0.0000
10182 O  61.9830 107.3580   4.3770 O 1 RES   0.0000
10183 Si  63.1740 108.0450   7.7810 Si 1 RES   0.0000
10184 O  64.3650 107.3580   8.2670 O 1 RES   0.0000
10185 O  61.9830 107.3580   8.2670 O 1 RES   0.0000
10186 O  63.1740 109.4210   8.2670 O 1 RES   0.0000
10187 Si  63.1740 110.7960   8.7530 Si 1 RES   0.0000
10188 O  63.1740 110.7960  10.2120 O 1 RES   0.0000
10189 O  60.7920 112.1720   6.3220 O 1 RES   0.0000
10190 Si  60.7920 112.1720   0.0000 Si 1 RES   0.0000
10191 O  60.7920 113.5470   0.4860 O 1 RES   0.0000
10192 Si  60.7920 114.9220   0.9730 Si 1 RES   0.0000
10193 O  61.9830 111.4840   0.4860 O 1 RES   0.0000
10194 O  59.6010 111.4840   0.4860 O 1 RES   0.0000
10195 O  60.7920 114.9220   2.4310 O 1 RES   0.0000
10196 Si  60.7920 114.9220   3.8900 Si 1 RES   0.0000
10197 O  60.7920 113.5470   4.3770 O 1 RES   0.0000
10198 Si  60.7920 112.1720   4.8630 Si 1 RES   0.0000
10199 O  61.9830 111.4840   4.3770 O 1 RES   0.0000
10200 O  59.6010 111.4840   4.3770 O 1 RES   0.0000
10201 Si  60.7920 112.1720   7.7810 Si 1 RES   0.0000
10202 O  61.9830 111.4840   8.2670 O 1 RES   0.0000
10203 O  59.6010 111.4840   8.2670 O 1 RES   0.0000
10204 O  60.7920 113.5470   8.2670 O 1 RES   0.0000
10205 Si  60.7920 114.9220   8.7530 Si 1 RES   0.0000
10206 O  60.7920 114.9220  10.2120 O 1 RES   0.0000
10207 O  65.5560 112.1720   6.3220 O 1 RES   0.0000
10208 Si  65.5560 112.1720   0.0000 Si 1 RES   0.0000
10209 O  65.5560 113.5470   0.4860 O 1 RES   0.0000
10210 Si  65.5560 114.9220   0.9730 Si 1 RES   0.0000
10211 O  66.7470 111.4840   0.4860 O 1 RES   0.0000
10212 O  64.3650 111.4840   0.4860 O 1 RES   0.0000
10213 O  65.5560 114.9220   2.4310 O 1 RES   0.0000
10214 Si  65.5560 114.9220   3.8900 Si 1 RES   0.0000
10215 O  65.5560 113.5470   4.3770 O 1 RES   0.0000
10216 Si  65.5560 112.1720   4.8630 Si 1 RES   0.0000
10217 O  66.7470 111.4840   4.3770 O 1 RES   0.0000
10218 O  64.3650 111.4840   4.3770 O 1 RES   0.0000
10219 Si  65.5560 112.1720   7.7810 Si 1 RES   0.0000
10220 O  66.7470 111.4840   8.2670 O 1 RES   0.0000
10221 O  64.3650 111.4840   8.2670 O 1 RES   0.0000
10222 O  65.5560 113.5470   8.2670 O 1 RES   0.0000
10223 Si  65.5560 114.9220   8.7530 Si 1 RES   0.0000
10224 O  65.5560 114.9220  10.2120 O 1 RES   0.0000
10225 O  67.9390 108.0450   6.3220 O 1 RES   0.0000
10226 Si  67.9390 108.0450   0.0000 Si 1 RES   0.0000
10227 O  67.9390 109.4210   0.4860 O 1 RES   0.0000
10228 Si  67.9390 110.7960   0.9730 Si 1 RES   0.0000
10229 O  69.1300 107.3580   0.4860 O 1 RES   0.0000
10230 O  66.7470 107.3580   0.4860 O 1 RES   0.0000
10231 O  67.9390 110.7960   2.4310 O 1 RES   0.0000
10232 Si  67.9390 110.7960   3.8900 Si 1 RES   0.0000
10233 O  67.9390 109.4210   4.3770 O 1 RES   0.0000
10234 Si  67.9390 108.0450   4.8630 Si 1 RES   0.0000
10235 O  69.1300 107.3580   4.3770 O 1 RES   0.0000
10236 O  66.7470 107.3580   4.3770 O 1 RES   0.0000
10237 Si  67.9390 108.0450   7.7810 Si 1 RES   0.0000
10238 O  69.1300 107.3580   8.2670 O 1 RES   0.0000
10239 O  66.7470 107.3580   8.2670 O 1 RES   0.0000
10240 O  67.9390 109.4210   8.2670 O 1 RES   0.0000
10241 Si  67.9390 110.7960   8.7530 Si 1 RES   0.0000
10242 O  67.9390 110.7960  10.2120 O 1 RES   0.0000
10243 O  72.7030 108.0450   6.3220 O 1 RES   0.0000
10244 Si  72.7030 108.0450   0.0000 Si 1 RES   0.0000
10245 O  72.7030 109.4210   0.4860 O 1 RES   0.0000
10246 Si  72.7030 110.7960   0.9730 Si 1 RES   0.0000
10247 O  73.8940 107.3580   0.4860 O 1 RES   0.0000
10248 O  71.5120 107.3580   0.4860 O 1 RES   0.0000
10249 O  72.7030 110.7960   2.4310 O 1 RES   0.0000
10250 Si  72.7030 110.7960   3.8900 Si 1 RES   0.0000
10251 O  72.7030 109.4210   4.3770 O 1 RES   0.0000
10252 Si  72.7030 108.0450   4.8630 Si 1 RES   0.0000
10253 O  73.8940 107.3580   4.3770 O 1 RES   0.0000
10254 O  71.5120 107.3580   4.3770 O 1 RES   0.0000
10255 Si  72.7030 108.0450   7.7810 Si 1 RES   0.0000
10256 O  73.8940 107.3580   8.2670 O 1 RES   0.0000
10257 O  71.5120 107.3580   8.2670 O 1 RES   0.0000
10258 O  72.7030 109.4210   8.2670 O 1 RES   0.0000
10259 Si  72.7030 110.7960   8.7530 Si 1 RES   0.0000
10260 O  72.7030 110.7960  10.2120 O 1 RES   0.0000
10261 O  70.3210 112.1720   6.3220 O 1 RES   0.0000
10262 Si  70.3210 112.1720   0.0000 Si 1 RES   0.0000
10263 O  70.3210 113.5470   0.4860 O 1 RES   0.0000
10264 Si  70.3210 114.9220   0.9730 Si 1 RES   0.0000
10265 O  71.5120 111.4840   0.4860 O 1 RES   0.0000
10266 O  69.1300 111.4840   0.4860 O 1 RES   0.0000
10267 O  70.3210 114.9220   2.4310 O 1 RES   0.0000
10268 Si  70.3210 114.9220   3.8900 Si 1 RES   0.0000
10269 O  70.3210 113.5470   4.3770 O 1 RES   0.0000
10270 Si  70.3210 112.1720   4.8630 Si 1 RES   0.0000
10271 O  71.5120 111.4840   4.3770 O 1 RES   0.0000
10272 O  69.1300 111.4840   4.3770 O 1 RES   0.0000
10273 Si  70.3210 112.1720   7.7810 Si 1 RES   0.0000
10274 O  71.5120 111.4840   8.2670 O 1 RES   0.0000
10275 O  69.1300 111.4840   8.2670 O 1 RES   0.0000
10276 O  70.3210 113.5470   8.2670 O 1 RES   0.0000
10277 Si  70.3210 114.9220   8.7530 Si 1 RES   0.0000
10278 O  70.3210 114.9220  10.2120 O 1 RES   0.0000
10279 O  75.0850 112.1720   6.3220 O 1 RES   0.0000
10280 Si  75.0850 112.1720   0.0000 Si 1 RES   0.0000
10281 O  75.0850 113.5470   0.4860 O 1 RES   0.0000
10282 Si  75.0850 114.9220   0.9730 Si 1 RES   0.0000
10283 O  76.2760 111.4840   0.4860 O 1 RES   0.0000
10284 O  73.8940 111.4840   0.4860 O 1 RES   0.0000
10285 O  75.0850 114.9220   2.4310 O 1 RES   0.0000
10286 Si  75.0850 114.9220   3.8900 Si 1 RES   0.0000
10287 O  75.0850 113.5470   4.3770 O 1 RES   0.0000
10288 Si  75.0850 112.1720   4.8630 Si 1 RES   0.0000
10289 O  76.2760 111.4840   4.3770 O 1 RES   0.0000
10290 O  73.8940 111.4840   4.3770 O 1 RES   0.0000
10291 Si  75.0850 112.1720   7.7810 Si 1 RES   0.0000
10292 O  76.2760 111.4840   8.2670 O 1 RES   0.0000
10293 O  73.8940 111.4840   8.2670 O 1 RES   0.0000
10294 O  75.0850 113.5470   8.2670 O 1 RES   0.0000
10295 Si  75.0850 114.9220   8.7530 Si 1 RES   0.0000
10296 O  75.0850 114.9220  10.2120 O 1 RES   0.0000
10297 O  77.4680 108.0450   6.3220 O 1 RES   0.0000
10298 Si  77.4680 108.0450   0.0000 Si 1 RES   0.0000
10299 O  77.4680 109.4210   0.4860 O 1 RES   0.0000
10300 Si  77.4680 110.7960   0.9730 Si 1 RES   0.0000
10301 O  78.6590 107.3580   0.4860 O 1 RES   0.0000
10302 O  76.2760 107.3580   0.4860 O 1 RES   0.0000
10303 O  77.4680 110.7960   2.4310 O 1 RES   0.0000
10304 Si  77.4680 110.7960   3.8900 Si 1 RES   0.0000
10305 O  77.4680 109.4210   4.3770 O 1 RES   0.0000
10306 Si  77.4680 108.0450   4.8630 Si 1 RES   0.0000
10307 O  78.6590 107.3580   4.3770 O 1 RES   0.0000
10308 O  76.2760 107.3580   4.3770 O 1 RES   0.0000
10309 Si  77.4680 108.0450   7.7810 Si 1 RES   0.0000
10310 O  78.6590 107.3580   8.2670 O 1 RES   0.0000
10311 O  76.2760 107.3580   8.2670 O 1 RES   0.0000
10312 O  77.4680 109.4210   8.2670 O 1 RES   0.0000
10313 Si  77.4680 110.7960   8.7530 Si 1 RES   0.0000
10314 O  77.4680 110.7960  10.2120 O 1 RES   0.0000
10315 O  82.2320 108.0450   6.3220 O 1 RES   0.0000
10316 Si  82.2320 108.0450   0.0000 Si 1 RES   0.0000
10317 O  82.2320 109.4210   0.4860 O 1 RES   0.0000
10318 Si  82.2320 110.7960   0.9730 Si 1 RES   0.0000
10319 O  83.4230 107.3580   0.4860 O 1 RES   0.0000
10320 O  81.0410 107.3580   0.4860 O 1 RES   0.0000
10321 O  82.2320 110.7960   2.4310 O 1 RES   0.0000
10322 Si  82.2320 110.7960   3.8900 Si 1 RES   0.0000
10323 O  82.2320 109.4210   4.3770 O 1 RES   0.0000
10324 Si  82.2320 108.0450   4.8630 Si 1 RES   0.0000
10325 O  83.4230 107.3580   4.3770 O 1 RES   0.0000
10326 O  81.0410 107.3580   4.3770 O 1 RES   0.0000
10327 Si  82.2320 108.0450   7.7810 Si 1 RES   0.0000
10328 O  83.4230 107.3580   8.2670 O 1 RES   0.0000
10329 O  81.0410 107.3580   8.2670 O 1 RES   0.0000
10330 O  82.2320 109.4210   8.2670 O 1 RES   0.0000
10331 Si  82.2320 110.7960   8.7530 Si 1 RES   0.0000
10332 O  82.2320 110.7960  10.2120 O 1 RES   0.0000
10333 O  79.8500 112.1720   6.3220 O 1 RES   0.0000
10334 Si  79.8500 112.1720   0.0000 Si 1 RES   0.0000
10335 O  79.8500 113.5470   0.4860 O 1 RES   0.0000
10336 Si  79.8500 114.9220   0.9730 Si 1 RES   0.0000
10337 O  81.0410 111.4840   0.4860 O 1 RES   0.0000
10338 O  78.6590 111.4840   0.4860 O 1 RES   0.0000
10339 O  79.8500 114.9220   2.4310 O 1 RES   0.0000
10340 Si  79.8500 114.9220   3.8900 Si 1 RES   0.0000
10341 O  79.8500 113.5470   4.3770 O 1 RES   0.0000
10342 Si  79.8500 112.1720   4.8630 Si 1 RES   0.0000
10343 O  81.0410 111.4840   4.3770 O 1 RES   0.0000
10344 O  78.6590 111.4840   4.3770 O 1 RES   0.0000
10345 Si  79.8500 112.1720   7.7810 Si 1 RES   0.0000
10346 O  81.0410 111.4840   8.2670 O 1 RES   0.0000
10347 O  78.6590 111.4840   8.2670 O 1 RES   0.0000
10348 O  79.8500 113.5470   8.2670 O 1 RES   0.0000
10349 Si  79.8500 114.9220   8.7530 Si 1 RES   0.0000
10350 O  79.8500 114.9220  10.2120 O 1 RES   0.0000
10351 O  84.6140 112.1720   6.3220 O 1 RES   0.0000
10352 Si  84.6140 112.1720   0.0000 Si 1 RES   0.0000
10353 O  84.6140 113.5470   0.4860 O 1 RES   0.0000
10354 Si  84.6140 114.9220   0.9730 Si 1 RES   0.0000
10355 O  85.8060 111.4840   0.4860 O 1 RES   0.0000
10356 O  83.4230 111.4840   0.4860 O 1 RES   0.0000
10357 O  84.6140 114.9220   2.4310 O 1 RES   0.0000
10358 Si  84.6140 114.9220   3.8900 Si 1 RES   0.0000
10359 O  84.6140 113.5470   4.3770 O 1 RES   0.0000
10360 Si  84.6140 112.1720   4.8630 Si 1 RES   0.0000
10361 O  85.8060 111.4840   4.3770 O 1 RES   0.0000
10362 O  83.4230 111.4840   4.3770 O 1 RES   0.0000
10363 Si  84.6140 112.1720   7.7810 Si 1 RES   0.0000
10364 O  85.8060 111.4840   8.2670 O 1 RES   0.0000
10365 O  83.4230 111.4840   8.2670 O 1 RES   0.0000
10366 O  84.6140 113.5470   8.2670 O 1 RES   0.0000
10367 Si  84.6140 114.9220   8.7530 Si 1 RES   0.0000
10368 O  84.6140 114.9220  10.2120 O 1 RES   0.0000
10369 O  86.9970 108.0450   6.3220 O 1 RES   0.0000
10370 Si  86.9970 108.0450   0.0000 Si 1 RES   0.0000
10371 O  86.9970 109.4210   0.4860 O 1 RES   0.0000
10372 Si  86.9970 110.7960   0.9730 Si 1 RES   0.0000
10373 O  88.1880 107.3580   0.4860 O 1 RES   0.0000
10374 O  85.8060 107.3580   0.4860 O 1 RES   0.0000
10375 O  86.9970 110.7960   2.4310 O 1 RES   0.0000
10376 Si  86.9970 110.7960   3.8900 Si 1 RES   0.0000
10377 O  86.9970 109.4210   4.3770 O 1 RES   0.0000
10378 Si  86.9970 108.0450   4.8630 Si 1 RES   0.0000
10379 O  88.1880 107.3580   4.3770 O 1 RES   0.0000
10380 O  85.8060 107.3580   4.3770 O 1 RES   0.0000
10381 Si  86.9970 108.0450   7.7810 Si 1 RES   0.0000
10382 O  88.1880 107.3580   8.2670 O 1 RES   0.0000
10383 O  85.8060 107.3580   8.2670 O 1 RES   0.0000
10384 O  86.9970 109.4210   8.2670 O 1 RES   0.0000
10385 Si  86.9970 110.7960   8.7530 Si 1 RES   0.0000
10386 O  86.9970 110.7960  10.2120 O 1 RES   0.0000
10387 O  91.7610 108.0450   6.3220 O 1 RES   0.0000
10388 Si  91.7610 108.0450   0.0000 Si 1 RES   0.0000
10389 O  91.7610 109.4210   0.4860 O 1 RES   0.0000
10390 Si  91.7610 110.7960   0.9730 Si 1 RES   0.0000
10391 O  92.9530 107.3580   0.4860 O 1 RES   0.0000
10392 O  90.5700 107.3580   0.4860 O 1 RES   0.0000
10393 O  91.7610 110.7960   2.4310 O 1 RES   0.0000
10394 Si  91.7610 110.7960   3.8900 Si 1 RES   0.0000
10395 O  91.7610 109.4210   4.3770 O 1 RES   0.0000
10396 Si  91.7610 108.0450   4.8630 Si 1 RES   0.0000
10397 O  92.9530 107.3580   4.3770 O 1 RES   0.0000
10398 O  90.5700 107.3580   4.3770 O 1 RES   0.0000
10399 Si  91.7610 108.0450   7.7810 Si 1 RES   0.0000
10400 O  92.9530 107.3580   8.2670 O 1 RES   0.0000
10401 O  90.5700 107.3580   8.2670 O 1 RES   0.0000
10402 O  91.7610 109.4210   8.2670 O 1 RES   0.0000
10403 Si  91.7610 110.7960   8.7530 Si 1 RES   0.0000
10404 O  91.7610 110.7960  10.2120 O 1 RES   0.0000
10405 O  89.3790 112.1720   6.3220 O 1 RES   0.0000
10406 Si  89.3790 112.1720   0.0000 Si 1 RES   0.0000
10407 O  89.3790 113.5470   0.4860 O 1 RES   0.0000
10408 Si  89.3790 114.9220   0.9730 Si 1 RES   0.0000
10409 O  90.5700 111.4840   0.4860 O 1 RES   0.0000
10410 O  88.1880 111.4840   0.4860 O 1 RES   0.0000
10411 O  89.3790 114.9220   2.4310 O 1 RES   0.0000
10412 Si  89.3790 114.9220   3.8900 Si 1 RES   0.0000
10413 O  89.3790 113.5470   4.3770 O 1 RES   0.0000
10414 Si  89.3790 112.1720   4.8630 Si 1 RES   0.0000
10415 O  90.5700 111.4840   4.3770 O 1 RES   0.0000
10416 O  88.1880 111.4840   4.3770 O 1 RES   0.0000
10417 Si  89.3790 112.1720   7.7810 Si 1 RES   0.0000
10418 O  90.5700 111.4840   8.2670 O 1 RES   0.0000
10419 O  88.1880 111.4840   8.2670 O 1 RES   0.0000
10420 O  89.3790 113.5470   8.2670 O 1 RES   0.0000
10421 Si  89.3790 114.9220   8.7530 Si 1 RES   0.0000
10422 O  89.3790 114.9220  10.2120 O 1 RES   0.0000
10423 O  94.1440 112.1720   6.3220 O 1 RES   0.0000
10424 Si  94.1440 112.1720   0.0000 Si 1 RES   0.0000
10425 O  94.1440 113.5470   0.4860 O 1 RES   0.0000
10426 Si  94.1440 114.9220   0.9730 Si 1 RES   0.0000
10427 O  47.6460 111.4840   0.4860 O 1 RES   0.0000
10428 O  92.9530 111.4840   0.4860 O 1 RES   0.0000
10429 O  94.1440 114.9220   2.4310 O 1 RES   0.0000
10430 Si  94.1440 114.9220   3.8900 Si 1 RES   0.0000
10431 O  94.1440 113.5470   4.3770 O 1 RES   0.0000
10432 Si  94.1440 112.1720   4.8630 Si 1 RES   0.0000
10433 O  47.6460 111.4840   4.3770 O 1 RES   0.0000
10434 O  92.9530 111.4840   4.3770 O 1 RES   0.0000
10435 Si  94.1440 112.1720   7.7810 Si 1 RES   0.0000
10436 O  47.6460 111.4840   8.2670 O 1 RES   0.0000
10437 O  92.9530 111.4840   8.2670 O 1 RES   0.0000
10438 O  94.1440 113.5470   8.2670 O 1 RES   0.0000
10439 Si  94.1440 114.9220   8.7530 Si 1 RES   0.0000
10440 O  94.1440 114.9220  10.2120 O 1 RES   0.0000
10441 O  48.8800 116.2980   6.3220 O 1 RES   0.0000
10442 Si  48.8800 116.2980   0.0000 Si 1 RES   0.0000
10443 O  48.8800 117.6730   0.4860 O 1 RES   0.0000
10444 Si  48.8800 119.0490   0.9730 Si 1 RES   0.0000
10445 O  50.0710 115.6100   0.4860 O 1 RES   0.0000
10446 O  47.6890 115.6100   0.4860 O 1 RES   0.0000
10447 O  48.8800 119.0490   2.4310 O 1 RES   0.0000
10448 Si  48.8800 119.0490   3.8900 Si 1 RES   0.0000
10449 O  48.8800 117.6730   4.3770 O 1 RES   0.0000
10450 Si  48.8800 116.2980   4.8630 Si 1 RES   0.0000
10451 O  50.0710 115.6100   4.3770 O 1 RES   0.0000
10452 O  47.6890 115.6100   4.3770 O 1 RES   0.0000
10453 Si  48.8800 116.2980   7.7810 Si 1 RES   0.0000
10454 O  50.0710 115.6100   8.2670 O 1 RES   0.0000
10455 O  47.6890 115.6100   8.2670 O 1 RES   0.0000
10456 O  48.8800 117.6730   8.2670 O 1 RES   0.0000
10457 Si  48.8800 119.0490   8.7530 Si 1 RES   0.0000
10458 O  48.8800 119.0490  10.2120 O 1 RES   0.0000
10459 O  53.6450 116.2980   6.3220 O 1 RES   0.0000
10460 Si  53.6450 116.2980   0.0000 Si 1 RES   0.0000
10461 O  53.6450 117.6730   0.4860 O 1 RES   0.0000
10462 Si  53.6450 119.0490   0.9730 Si 1 RES   0.0000
10463 O  54.8360 115.6100   0.4860 O 1 RES   0.0000
10464 O  52.4540 115.6100   0.4860 O 1 RES   0.0000
10465 O  53.6450 119.0490   2.4310 O 1 RES   0.0000
10466 Si  53.6450 119.0490   3.8900 Si 1 RES   0.0000
10467 O  53.6450 117.6730   4.3770 O 1 RES   0.0000
10468 Si  53.6450 116.2980   4.8630 Si 1 RES   0.0000
10469 O  54.8360 115.6100   4.3770 O 1 RES   0.0000
10470 O  52.4540 115.6100   4.3770 O 1 RES   0.0000
10471 Si  53.6450 116.2980   7.7810 Si 1 RES   0.0000
10472 O  54.8360 115.6100   8.2670 O 1 RES   0.0000
10473 O  52.4540 115.6100   8.2670 O 1 RES   0.0000
10474 O  53.6450 117.6730   8.2670 O 1 RES   0.0000
10475 Si  53.6450 119.0490   8.7530 Si 1 RES   0.0000
10476 O  53.6450 119.0490  10.2120 O 1 RES   0.0000
10477 O  51.2620 120.4240   6.3220 O 1 RES   0.0000
10478 Si  51.2620 120.4240   0.0000 Si 1 RES   0.0000
10479 O  51.2620 121.7990   0.4860 O 1 RES   0.0000
10480 Si  51.2620  81.8750   0.9730 Si 1 RES   0.0000
10481 O  52.4540 119.7360   0.4860 O 1 RES   0.0000
10482 O  50.0710 119.7360   0.4860 O 1 RES   0.0000
10483 O  51.2620  81.8750   2.4310 O 1 RES   0.0000
10484 Si  51.2620  81.8750   3.8900 Si 1 RES   0.0000
10485 O  51.2620 121.7990   4.3770 O 1 RES   0.0000
10486 Si  51.2620 120.4240   4.8630 Si 1 RES   0.0000
10487 O  52.4540 119.7360   4.3770 O 1 RES   0.0000
10488 O  50.0710 119.7360   4.3770 O 1 RES   0.0000
10489 Si  51.2620 120.4240   7.7810 Si 1 RES   0.0000
10490 O  52.4540 119.7360   8.2670 O 1 RES   0.0000
10491 O  50.0710 119.7360   8.2670 O 1 RES   0.0000
10492 O  51.2620 121.7990   8.2670 O 1 RES   0.0000
10493 Si  51.2620  81.8750   8.7530 Si 1 RES   0.0000
10494 O  51.2620  81.8750  10.2120 O 1 RES   0.0000
10495 O  56.0270 120.4240   6.3220 O 1 RES   0.0000
10496 Si  56.0270 120.4240   0.0000 Si 1 RES   0.0000
10497 O  56.0270 121.7990   0.4860 O 1 RES   0.0000
10498 Si  56.0270  81.8750   0.9730 Si 1 RES   0.0000
10499 O  57.2180 119.7360   0.4860 O 1 RES   0.0000
10500 O  54.8360 119.7360   0.4860 O 1 RES   0.0000
10501 O  56.0270  81.8750   2.4310 O 1 RES   0.0000
10502 Si  56.0270  81.8750   3.8900 Si 1 RES   0.0000
10503 O  56.0270 121.7990   4.3770 O 1 RES   0.0000
10504 Si  56.0270 120.4240   4.8630 Si 1 RES   0.0000
10505 O  57.2180 119.7360   4.3770 O 1 RES   0.0000
10506 O  54.8360 119.7360   4.3770 O 1 RES   0.0000
10507 Si  56.0270 120.4240   7.7810 Si 1 RES   0.0000
10508 O  57.2180 119.7360   8.2670 O 1 RES   0.0000
10509 O  54.8360 119.7360   8.2670 O 1 RES   0.0000
10510 O  56.0270 121.7990   8.2670 O 1 RES   0.0000
10511 Si  56.0270  81.8750   8.7530 Si 1 RES   0.0000
10512 O  56.0270  81.8750  10.2120 O 1 RES   0.0000
10513 O  58.4090 116.2980   6.3220 O 1 RES   0.0000
10514 Si  58.4090 116.2980   0.0000 Si 1 RES   0.0000
10515 O  58.4090 117.6730   0.4860 O 1 RES   0.0000
10516 Si  58.4090 119.0490   0.9730 Si 1 RES   0.0000
10517 O  59.6010 115.6100   0.4860 O 1 RES   0.0000
10518 O  57.2180 115.6100   0.4860 O 1 RES   0.0000
10519 O  58.4090 119.0490   2.4310 O 1 RES   0.0000
10520 Si  58.4090 119.0490   3.8900 Si 1 RES   0.0000
10521 O  58.4090 117.6730   4.3770 O 1 RES   0.0000
10522 Si  58.4090 116.2980   4.8630 Si 1 RES   0.0000
10523 O  59.6010 115.6100   4.3770 O 1 RES   0.0000
10524 O  57.2180 115.6100   4.3770 O 1 RES   0.0000
10525 Si  58.4090 116.2980   7.7810 Si 1 RES   0.0000
10526 O  59.6010 115.6100   8.2670 O 1 RES   0.0000
10527 O  57.2180 115.6100   8.2670 O 1 RES   0.0000
10528 O  58.4090 117.6730   8.2670 O 1 RES   0.0000
10529 Si  58.4090 119.0490   8.7530 Si 1 RES   0.0000
10530 O  58.4090 119.0490  10.2120 O 1 RES   0.0000
10531 O  63.1740 116.2980   6.3220 O 1 RES   0.0000
10532 Si  63.1740 116.2980   0.0000 Si 1 RES   0.0000
10533 O  63.1740 117.6730   0.4860 O 1 RES   0.0000
10534 Si  63.1740 119.0490   0.9730 Si 1 RES   0.0000
10535 O  64.3650 115.6100   0.4860 O 1 RES   0.0000
10536 O  61.9830 115.6100   0.4860 O 1 RES   0.0000
10537 O  63.1740 119.0490   2.4310 O 1 RES   0.0000
10538 Si  63.1740 119.0490   3.8900 Si 1 RES   0.0000
10539 O  63.1740 117.6730   4.3770 O 1 RES   0.0000
10540 Si  63.1740 116.2980   4.8630 Si 1 RES   0.0000
10541 O  64.3650 115.6100   4.3770 O 1 RES   0.0000
10542 O  61.9830 115.6100   4.3770 O 1 RES   0.0000
10543 Si  63.1740 116.2980   7.7810 Si 1 RES   0.0000
10544 O  64.3650 115.6100   8.2670 O 1 RES   0.0000
10545 O  61.9830 115.6100   8.2670 O 1 RES   0.0000
10546 O  63.1740 117.6730   8.2670 O 1 RES   0.0000
10547 Si  63.1740 119.0490   8.7530 Si 1 RES   0.0000
10548 O  63.1740 119.0490  10.2120 O 1 RES   0.0000
10549 O  60.7920 120.4240   6.3220 O 1 RES   0.0000
10550 Si  60.7920 120.4240   0.0000 Si 1 RES   0.0000
10551 O  60.7920 121.7990   0.4860 O 1 RES   0.0000
10552 Si  60.7920  81.8750   0.9730 Si 1 RES   0.0000
10553 O  61.9830 119.7360   0.4860 O 1 RES   0.0000
10554 O  59.6010 119.7360   0.4860 O 1 RES   0.0000
10555 O  60.7920  81.8750   2.4310 O 1 RES   0.0000
10556 Si  60.7920  81.8750   3.8900 Si 1 RES   0.0000
10557 O  60.7920 121.7990   4.3770 O 1 RES   0.0000
10558 Si  60.7920 120.4240   4.8630 Si 1 RES   0.0000
10559 O  61.9830 119.7360   4.3770 O 1 RES   0.0000
10560 O  59.6010 119.7360   4.3770 O 1 RES   0.0000
10561 Si  60.7920 120.4240   7.7810 Si 1 RES   0.0000
10562 O  61.9830 119.7360   8.2670 O 1 RES   0.0000
10563 O  59.6010 119.7360   8.2670 O 1 RES   0.0000
10564 O  60.7920 121.7990   8.2670 O 1 RES   0.0000
10565 Si  60.7920  81.8750   8.7530 Si 1 RES   0.0000
10566 O  60.7920  81.8750  10.2120 O 1 RES   0.0000
10567 O  65.5560 120.4240   6.3220 O 1 RES   0.0000
10568 Si  65.5560 120.4240   0.0000 Si 1 RES   0.0000
10569 O  65.5560 121.7990   0.4860 O 1 RES   0.0000
10570 Si  65.5560  81.8750   0.9730 Si 1 RES   0.0000
10571 O  66.7470 119.7360   0.4860 O 1 RES   0.0000
10572 O  64.3650 119.7360   0.4860 O 1 RES   0.0000
10573 O  65.5560  81.8750   2.4310 O 1 RES   0.0000
10574 Si  65.5560  81.8750   3.8900 Si 1 RES   0.0000
10575 O  65.5560 121.7990   4.3770 O 1 RES   0.0000
10576 Si  65.5560 120.4240   4.8630 Si 1 RES   0.0000
10577 O  66.7470 119.7360   4.3770 O 1 RES   0.0000
10578 O  64.3650 119.7360   4.3770 O 1 RES   0.0000
10579 Si  65.5560 120.4240   7.7810 Si 1 RES   0.0000
10580 O  66.7470 119.7360   8.2670 O 1 RES   0.0000
10581 O  64.3650 119.7360   8.2670 O 1 RES   0.0000
10582 O  65.5560 121.7990   8.2670 O 1 RES   0.0000
10583 Si  65.5560  81.8750   8.7530 Si 1 RES   0.0000
10584 O  65.5560  81.8750  10.2120 O 1 RES   0.0000
10585 O  67.9390 116.2980   6.3220 O 1 RES   0.0000
10586 Si  67.9390 116.2980   0.0000 Si 1 RES   0.0000
10587 O  67.9390 117.6730   0.4860 O 1 RES   0.0000
10588 Si  67.9390 119.0490   0.9730 Si 1 RES   0.0000
10589 O  69.1300 115.6100   0.4860 O 1 RES   0.0000
10590 O  66.7470 115.6100   0.4860 O 1 RES   0.0000
10591 O  67.9390 119.0490   2.4310 O 1 RES   0.0000
10592 Si  67.9390 119.0490   3.8900 Si 1 RES   0.0000
10593 O  67.9390 117.6730   4.3770 O 1 RES   0.0000
10594 Si  67.9390 116.2980   4.8630 Si 1 RES   0.0000
10595 O  69.1300 115.6100   4.3770 O 1 RES   0.0000
10596 O  66.7470 115.6100   4.3770 O 1 RES   0.0000
10597 Si  67.9390 116.2980   7.7810 Si 1 RES   0.0000
10598 O  69.1300 115.6100   8.2670 O 1 RES   0.0000
10599 O  66.7470 115.6100   8.2670 O 1 RES   0.0000
10600 O  67.9390 117.6730   8.2670 O 1 RES   0.0000
10601 Si  67.9390 119.0490   8.7530 Si 1 RES   0.0000
10602 O  67.9390 119.0490  10.2120 O 1 RES   0.0000
10603 O  72.7030 116.2980   6.3220 O 1 RES   0.0000
10604 Si  72.7030 116.2980   0.0000 Si 1 RES   0.0000
10605 O  72.7030 117.6730   0.4860 O 1 RES   0.0000
10606 Si  72.7030 119.0490   0.9730 Si 1 RES   0.0000
10607 O  73.8940 115.6100   0.4860 O 1 RES   0.0000
10608 O  71.5120 115.6100   0.4860 O 1 RES   0.0000
10609 O  72.7030 119.0490   2.4310 O 1 RES   0.0000
10610 Si  72.7030 119.0490   3.8900 Si 1 RES   0.0000
10611 O  72.7030 117.6730   4.3770 O 1 RES   0.0000
10612 Si  72.7030 116.2980   4.8630 Si 1 RES   0.0000
10613 O  73.8940 115.6100   4.3770 O 1 RES   0.0000
10614 O  71.5120 115.6100   4.3770 O 1 RES   0.0000
10615 Si  72.7030 116.2980   7.7810 Si 1 RES   0.0000
10616 O  73.8940 115.6100   8.2670 O 1 RES   0.0000
10617 O  71.5120 115.6100   8.2670 O 1 RES   0.0000
10618 O  72.7030 117.6730   8.2670 O 1 RES   0.0000
10619 Si  72.7030 119.0490   8.7530 Si 1 RES   0.0000
10620 O  72.7030 119.0490  10.2120 O 1 RES   0.0000
10621 O  70.3210 120.4240   6.3220 O 1 RES   0.0000
10622 Si  70.3210 120.4240   0.0000 Si 1 RES   0.0000
10623 O  70.3210 121.7990   0.4860 O 1 RES   0.0000
10624 Si  70.3210  81.8750   0.9730 Si 1 RES   0.0000
10625 O  71.5120 119.7360   0.4860 O 1 RES   0.0000
10626 O  69.1300 119.7360   0.4860 O 1 RES   0.0000
10627 O  70.3210  81.8750   2.4310 O 1 RES   0.0000
10628 Si  70.3210  81.8750   3.8900 Si 1 RES   0.0000
10629 O  70.3210 121.7990   4.3770 O 1 RES   0.0000
10630 Si  70.3210 120.4240   4.8630 Si 1 RES   0.0000
10631 O  71.5120 119.7360   4.3770 O 1 RES   0.0000
10632 O  69.1300 119.7360   4.3770 O 1 RES   0.0000
10633 Si  70.3210 120.4240   7.7810 Si 1 RES   0.0000
10634 O  71.5120 119.7360   8.2670 O 1 RES   0.0000
10635 O  69.1300 119.7360   8.2670 O 1 RES   0.0000
10636 O  70.3210 121.7990   8.2670 O 1 RES   0.0000
10637 Si  70.3210  81.8750   8.7530 Si 1 RES   0.0000
10638 O  70.3210  81.8750  10.2120 O 1 RES   0.0000
10639 O  75.0850 120.4240   6.3220 O 1 RES   0.0000
10640 Si  75.0850 120.4240   0.0000 Si 1 RES   0.0000
10641 O  75.0850 121.7990   0.4860 O 1 RES   0.0000
10642 Si  75.0850  81.8750   0.9730 Si 1 RES   0.0000
10643 O  76.2760 119.7360   0.4860 O 1 RES   0.0000
10644 O  73.8940 119.7360   0.4860 O 1 RES   0.0000
10645 O  75.0850  81.8750   2.4310 O 1 RES   0.0000
10646 Si  75.0850  81.8750   3.8900 Si 1 RES   0.0000
10647 O  75.0850 121.7990   4.3770 O 1 RES   0.0000
10648 Si  75.0850 120.4240   4.8630 Si 1 RES   0.0000
10649 O  76.2760 119.7360   4.3770 O 1 RES   0.0000
10650 O  73.8940 119.7360   4.3770 O 1 RES   0.0000
10651 Si  75.0850 120.4240   7.7810 Si 1 RES   0.0000
10652 O  76.2760 119.7360   8.2670 O 1 RES   0.0000
10653 O  73.8940 119.7360   8.2670 O 1 RES   0.0000
10654 O  75.0850 121.7990   8.2670 O 1 RES   0.0000
10655 Si  75.0850  81.8750   8.7530 Si 1 RES   0.0000
10656 O  75.0850  81.8750  10.2120 O 1 RES   0.0000
10657 O  77.4680 116.2980   6.3220 O 1 RES   0.0000
10658 Si  77.4680 116.2980   0.0000 Si 1 RES   0.0000
10659 O  77.4680 117.6730   0.4860 O 1 RES   0.0000
10660 Si  77.4680 119.0490   0.9730 Si 1 RES   0.0000
10661 O  78.6590 115.6100   0.4860 O 1 RES   0.0000
10662 O  76.2760 115.6100   0.4860 O 1 RES   0.0000
10663 O  77.4680 119.0490   2.4310 O 1 RES   0.0000
10664 Si  77.4680 119.0490   3.8900 Si 1 RES   0.0000
10665 O  77.4680 117.6730   4.3770 O 1 RES   0.0000
10666 Si  77.4680 116.2980   4.8630 Si 1 RES   0.0000
10667 O  78.6590 115.6100   4.3770 O 1 RES   0.0000
10668 O  76.2760 115.6100   4.3770 O 1 RES   0.0000
10669 Si  77.4680 116.2980   7.7810 Si 1 RES   0.0000
10670 O  78.6590 115.6100   8.2670 O 1 RES   0.0000
10671 O  76.2760 115.6100   8.2670 O 1 RES   0.0000
10672 O  77.4680 117.6730   8.2670 O 1 RES   0.0000
10673 Si  77.4680 119.0490   8.7530 Si 1 RES   0.0000
10674 O  77.4680 119.0490  10.2120 O 1 RES   0.0000
10675 O  82.2320 116.2980   6.3220 O 1 RES   0.0000
10676 Si  82.2320 116.2980   0.0000 Si 1 RES   0.0000
10677 O  82.2320 117.6730   0.4860 O 1 RES   0.0000
10678 Si  82.2320 119.0490   0.9730 Si 1 RES   0.0000
10679 O  83.4230 115.6100   0.4860 O 1 RES   0.0000
10680 O  81.0410 115.6100   0.4860 O 1 RES   0.0000
10681 O  82.2320 119.0490   2.4310 O 1 RES   0.0000
10682 Si  82.2320 119.0490   3.8900 Si 1 RES   0.0000
10683 O  82.2320 117.6730   4.3770 O 1 RES   0.0000
10684 Si  82.2320 116.2980   4.8630 Si 1 RES   0.0000
10685 O  83.4230 115.6100   4.3770 O 1 RES   0.0000
10686 O  81.0410 115.6100   4.3770 O 1 RES   0.0000
10687 Si  82.2320 116.2980   7.7810 Si 1 RES   0.0000
10688 O  83.4230 115.6100   8.2670 O 1 RES   0.0000
10689 O  81.0410 115.6100   8.2670 O 1 RES   0.0000
10690 O  82.2320 117.6730   8.2670 O 1 RES   0.0000
10691 Si  82.2320 119.0490   8.7530 Si 1 RES   0.0000
10692 O  82.2320 119.0490  10.2120 O 1 RES   0.0000
10693 O  79.8500 120.4240   6.3220 O 1 RES   0.0000
10694 Si  79.8500 120.4240   0.0000 Si 1 RES   0.0000
10695 O  79.8500 121.7990   0.4860 O 1 RES   0.0000
10696 Si  79.8500  81.8750   0.9730 Si 1 RES   0.0000
10697 O  81.0410 119.7360   0.4860 O 1 RES   0.0000
10698 O  78.6590 119.7360   0.4860 O 1 RES   0.0000
10699 O  79.8500  81.8750   2.4310 O 1 RES   0.0000
10700 Si  79.8500  81.8750   3.8900 Si 1 RES   0.0000
10701 O  79.8500 121.7990   4.3770 O 1 RES   0.0000
10702 Si  79.8500 120.4240   4.8630 Si 1 RES   0.0000
10703 O  81.0410 119.7360   4.3770 O 1 RES   0.0000
10704 O  78.6590 119.7360   4.3770 O 1 RES   0.0000
10705 Si  79.8500 120.4240   7.7810 Si 1 RES   0.0000
10706 O  81.0410 119.7360   8.2670 O 1 RES   0.0000
10707 O  78.6590 119.7360   8.2670 O 1 RES   0.0000
10708 O  79.8500 121.7990   8.2670 O 1 RES   0.0000
10709 Si  79.8500  81.8750   8.7530 Si 1 RES   0.0000
10710 O  79.8500  81.8750  10.2120 O 1 RES   0.0000
10711 O  84.6140 120.4240   6.3220 O 1 RES   0.0000
10712 Si  84.6140 120.4240   0.0000 Si 1 RES   0.0000
10713 O  84.6140 121.7990   0.4860 O 1 RES   0.0000
10714 Si  84.6140  81.8750   0.9730 Si 1 RES   0.0000
10715 O  85.8060 119.7360   0.4860 O 1 RES   0.0000
10716 O  83.4230 119.7360   0.4860 O 1 RES   0.0000
10717 O  84.6140  81.8750   2.4310 O 1 RES   0.0000
10718 Si  84.6140  81.8750   3.8900 Si 1 RES   0.0000
10719 O  84.6140 121.7990   4.3770 O 1 RES   0.0000
10720 Si  84.6140 120.4240   4.8630 Si 1 RES   0.0000
10721 O  85.8060 119.7360   4.3770 O 1 RES   0.0000
10722 O  83.4230 119.7360   4.3770 O 1 RES   0.0000
10723 Si  84.6140 120.4240   7.7810 Si 1 RES   0.0000
10724 O  85.8060 119.7360   8.2670 O 1 RES   0.0000
10725 O  83.4230 119.7360   8.2670 O 1 RES   0.0000
10726 O  84.6140 121.7990   8.2670 O 1 RES   0.0000
10727 Si  84.6140  81.8750   8.7530 Si 1 RES   0.0000
10728 O  84.6140  81.8750  10.2120 O 1 RES   0.0000
10729 O  86.9970 116.2980   6.3220 O 1 RES   0.0000
10730 Si  86.9970 116.2980   0.0000 Si 1 RES   0.0000
10731 O  86.9970 117.6730   0.4860 O 1 RES   0.0000
10732 Si  86.9970 119.0490   0.9730 Si 1 RES   0.0000
10733 O  88.1880 115.6100   0.4860 O 1 RES   0.0000
10734 O  85.8060 115.6100   0.4860 O 1 RES   0.0000
10735 O  86.9970 119.0490   2.4310 O 1 RES   0.0000
10736 Si  86.9970 119.0490   3.8900 Si 1 RES   0.0000
10737 O  86.9970 117.6730   4.3770 O 1 RES   0.0000
10738 Si  86.9970 116.2980   4.8630 Si 1 RES   0.0000
10739 O  88.1880 115.6100   4.3770 O 1 RES   0.0000
10740 O  85.8060 115.6100   4.3770 O 1 RES   0.0000
10741 Si  86.9970 116.2980   7.7810 Si 1 RES   0.0000
10742 O  88.1880 115.6100   8.2670 O 1 RES   0.0000
10743 O  85.8060 115.6100   8.2670 O 1 RES   0.0000
10744 O  86.9970 117.6730   8.2670 O 1 RES   0.0000
10745 Si  86.9970 119.0490   8.7530 Si 1 RES   0.0000
10746 O  86.9970 119.0490  10.2120 O 1 RES   0.0000
10747 O  91.7610 116.2980   6.3220 O 1 RES   0.0000
10748 Si  91.7610 116.2980   0.0000 Si 1 RES   0.0000
10749 O  91.7610 117.6730   0.4860 O 1 RES   0.0000
10750 Si  91.7610 119.0490   0.9730 Si 1 RES   0.0000
10751 O  92.9530 115.6100   0.4860 O 1 RES   0.0000
10752 O  90.5700 115.6100   0.4860 O 1 RES   0.0000
10753 O  91.7610 119.0490   2.4310 O 1 RES   0.0000
10754 Si  91.7610 119.0490   3.8900 Si 1 RES   0.0000
10755 O  91.7610 117.6730   4.3770 O 1 RES   0.0000
10756 Si  91.7610 116.2980   4.8630 Si 1 RES   0.0000
10757 O  92.9530 115.6100   4.3770 O 1 RES   0.0000
10758 O  90.5700 115.6100   4.3770 O 1 RES   0.0000
10759 Si  91.7610 116.2980   7.7810 Si 1 RES   0.0000
10760 O  92.9530 115.6100   8.2670 O 1 RES   0.0000
10761 O  90.5700 115.6100   8.2670 O 1 RES   0.0000
10762 O  91.7610 117.6730   8.2670 O 1 RES   0.0000
10763 Si  91.7610 119.0490   8.7530 Si 1 RES   0.0000
10764 O  91.7610 119.0490  10.2120 O 1 RES   0.0000
10765 O  89.3790 120.4240   6.3220 O 1 RES   0.0000
10766 Si  89.3790 120.4240   0.0000 Si 1 RES   0.0000
10767 O  89.3790 121.7990   0.4860 O 1 RES   0.0000
10768 Si  89.3790  81.8750   0.9730 Si 1 RES   0.0000
10769 O  90.5700 119.7360   0.4860 O 1 RES   0.0000
10770 O  88.1880 119.7360   0.4860 O 1 RES   0.0000
10771 O  89.3790  81.8750   2.4310 O 1 RES   0.0000
10772 Si  89.3790  81.8750   3.8900 Si 1 RES   0.0000
10773 O  89.3790 121.7990   4.3770 O 1 RES   0.0000
10774 Si  89.3790 120.4240   4.8630 Si 1 RES   0.0000
10775 O  90.5700 119.7360   4.3770 O 1 RES   0.0000
10776 O  88.1880 119.7360   4.3770 O 1 RES   0.0000
10777 Si  89.3790 120.4240   7.7810 Si 1 RES   0.0000
10778 O  90.5700 119.7360   8.2670 O 1 RES   0.0000
10779 O  88.1880 119.7360   8.2670 O 1 RES   0.0000
10780 O  89.3790 121.7990   8.2670 O 1 RES   0.0000
10781 Si  89.3790  81.8750   8.7530 Si 1 RES   0.0000
10782 O  89.3790  81.8750  10.2120 O 1 RES   0.0000
10783 O  94.1440 120.4240   6.3220 O 1 RES   0.0000
10784 Si  94.1440 120.4240   0.0000 Si 1 RES   0.0000
10785 O  94.1440 121.7990   0.4860 O 1 RES   0.0000
10786 Si  94.1440  81.8750   0.9730 Si 1 RES   0.0000
10787 O  47.6460 119.7360   0.4860 O 1 RES   0.0000
10788 O  92.9530 119.7360   0.4860 O 1 RES   0.0000
10789 O  94.1440  81.8750   2.4310 O 1 RES   0.0000
10790 Si  94.1440  81.8750   3.8900 Si 1 RES   0.0000
10791 O  94.1440 121.7990   4.3770 O 1 RES   0.0000
10792 Si  94.1440 120.4240   4.8630 Si 1 RES   0.0000
10793 O  47.6460 119.7360   4.3770 O 1 RES   0.0000
10794 O  92.9530 119.7360   4.3770 O 1 RES   0.0000
10795 Si  94.1440 120.4240   7.7810 Si 1 RES   0.0000
10796 O  47.6460 119.7360   8.2670 O 1 RES   0.0000
10797 O  92.9530 119.7360   8.2670 O 1 RES   0.0000
10798 O  94.1440 121.7990   8.2670 O 1 RES   0.0000
10799 Si  94.1440  81.8750   8.7530 Si 1 RES   0.0000
10800 O  94.1440  81.8750  10.2120 O 1 RES   0.0000
10801 C  94.1440  -0.7250  13.3120 C 1 RES   0.0000
10802 H  93.0440  -0.7250  13.3120 H 1 RES   0.0000
10803 H  95.2440  -0.7250  13.3120 H 1 RES   0.0000
10804 C  94.1440  -0.7250  14.7120 C 1 RES   0.0000
10805 H  93.0440  -0.7250  14.7120 H 1 RES   0.0000
10806 H  95.2440  -0.7250  14.7120 H 1 RES   0.0000
10807 C  94.1440  -0.7250  16.1120 C 1 RES   0.0000
10808 H  93.0440  -0.7250  16.1120 H 1 RES   0.0000
10809 H  95.2440  -0.7250  16.1120 H 1 RES   0.0000
10810 C  94.1440  -0.7250  17.5120 C 1 RES   0.0000
10811 H  93.0440  -0.7250  17.5120 H 1 RES   0.0000
10812 H  95.2440  -0.7250  17.5120 H 1 RES   0.0000
10813 C  94.1440  -0.7250  18.9120 C 1 RES   0.0000
10814 H  93.0440  -0.7250  18.9120 H 1 RES   0.0000
10815 H  95.2440  -0.7250  18.9120 H 1 RES   0.0000
10816 C  94.1440  -0.7250  20.3120 C 1 RES   0.0000
10817 H  93.0440  -0.7250  20.3120 H 1 RES   0.0000
10818 H  95.2440  -0.7250  20.3120 H 1 RES   0.0000
10819 C  94.1440  -0.7250  21.7120 C 1 RES   0.0000
10820 H  93.0440  -0.7250  21.7120 H 1 RES   0.0000
10821 H  95.2440  -0.7250  21.7120 H 1 RES   0.0000
10822 C  94.1440  -0.7250  23.1120 C 1 RES   0.0000
10823 H  93.0440  -0.7250  23.1120 H 1 RES   0.0000
10824 H  95.2440  -0.7250  23.1120 H 1 RES   0.0000
10825 C  94.1440  -0.7250  24.5120 C 1 RES   0.0000
10826 H  93.0440  -0.7250  24.5120 H 1 RES   0.0000
10827 H  95.2440  -0.7250  24.5120 H 1 RES   0.0000
10828 C  94.1440  -0.7250  25.9120 C 1 RES   0.0000
10829 H  95.2140  -0.7250  25.9120 H 1 RES   0.0000
10830 H  93.7870  -1.3780  26.6810 H 1 RES   0.0000
10831 H  93.7870   0.2680  26.0930 H 1 RES   0.0000
10832 Si  94.1440  -0.7250  11.9120 Si 1 RES   0.0000
10833 O  95.4513  -0.7250  11.9120 O 1 RES   0.0000
10834 H  95.7785  -0.0540  11.9436 H 1 RES   0.0000
10835 O  92.6938  -0.7250  12.0629 O 1 RES   0.0000
10836 H  92.3260  -1.5270  11.9803 H 1 RES   0.0000
10837 C  94.1440  15.8170  13.3120 C 1 RES   0.0000
10838 H  93.0440  15.8170  13.3120 H 1 RES   0.0000
10839 H  95.2440  15.8170  13.3120 H 1 RES   0.0000
10840 C  94.1440  15.8170  14.7120 C 1 RES   0.0000
10841 H  93.0440  15.8170  14.7120 H 1 RES   0.0000
10842 H  95.2440  15.8170  14.7120 H 1 RES   0.0000
10843 C  94.1440  15.8170  16.1120 C 1 RES   0.0000
10844 H  93.0440  15.8170  16.1120 H 1 RES   0.0000
10845 H  95.2440  15.8170  16.1120 H 1 RES   0.0000
10846 C  94.1440  15.8170  17.5120 C 1 RES   0.0000
10847 H  93.0440  15.8170  17.5120 H 1 RES   0.0000
10848 H  95.2440  15.8170  17.5120 H 1 RES   0.0000
10849 C  94.1440  15.8170  18.9120 C 1 RES   0.0000
10850 H  93.0440  15.8170  18.9120 H 1 RES   0.0000
10851 H  95.2440  15.8170  18.9120 H 1 RES   0.0000
10852 C  94.1440  15.8170  20.3120 C 1 RES   0.0000
10853 H  93.0440  15.8170  20.3120 H 1 RES   0.0000
10854 H  95.2440  15.8170  20.3120 H 1 RES   0.0000
10855 C  94.1440  15.8170  21.7120 C 1 RES   0.0000
10856 H  93.0440  15.8170  21.7120 H 1 RES   0.0000
10857 H  95.2440  15.8170  21.7120 H 1 RES   0.0000
10858 C  94.1440  15.8170  23.1120 C 1 RES   0.0000
10859 H  93.0440  15.8170  23.1120 H 1 RES   0.0000
10860 H  95.2440  15.8170  23.1120 H 1 RES   0.0000
10861 C  94.1440  15.8170  24.5120 C 1 RES   0.0000
10862 H  93.0440  15.8170  24.5120 H 1 RES   0.0000
10863 H  95.2440  15.8170  24.5120 H 1 RES   0.0000
10864 C  94.1440  15.8170  25.9120 C 1 RES   0.0000
10865 H  95.2140  15.8170  25.9120 H 1 RES   0.0000
10866 H  93.7870  15.1640  26.6810 H 1 RES   0.0000
10867 H  93.7870  16.8100  26.0930 H 1 RES   0.0000
10868 Si  94.1440  15.8170  11.9120 Si 1 RES   0.0000
10869 O  95.4513  15.8170  11.9120 O 1 RES   0.0000
10870 H  95.7785  16.4880  11.9436 H 1 RES   0.0000
10871 O  92.6938  15.8170  12.0629 O 1 RES   0.0000
10872 H  92.3260  15.0150  11.9803 H 1 RES   0.0000
10873 C   1.1910  28.1960  13.3120 C 1 RES   0.0000
10874 H   0.0910  28.1960  13.3120 H 1 RES   0.0000
10875 H   2.2910  28.1960  13.3120 H 1 RES   0.0000
10876 C   1.1910  28.1960  14.7120 C 1 RES   0.0000
10877 H   0.0910  28.1960  14.7120 H 1 RES   0.0000
10878 H   2.2910  28.1960  14.7120 H 1 RES   0.0000
10879 C   1.1910  28.1960  16.1120 C 1 RES   0.0000
10880 H   0.0910  28.1960  16.1120 H 1 RES   0.0000
10881 H   2.2910  28.1960  16.1120 H 1 RES   0.0000
10882 C   1.1910  28.1960  17.5120 C 1 RES   0.0000
10883 H   0.0910  28.1960  17.5120 H 1 RES   0.0000
10884 H   2.2910  28.1960  17.5120 H 1 RES   0.0000
10885 C   1.1910  28.1960  18.9120 C 1 RES   0.0000
10886 H   0.0910  28.1960  18.9120 H 1 RES   0.0000
10887 H   2.2910  28.1960  18.9120 H 1 RES   0.0000
10888 C   1.1910  28.1960  20.3120 C 1 RES   0.0000
10889 H   0.0910  28.1960  20.3120 H 1 RES   0.0000
10890 H   2.2910  28.1960  20.3120 H 1 RES   0.0000
10891 C   1.1910  28.1960  21.7120 C 1 RES   0.0000
10892 H   0.0910  28.1960  21.7120 H 1 RES   0.0000
10893 H   2.2910  28.1960  21.7120 H 1 RES   0.0000
10894 C   1.1910  28.1960  23.1120 C 1 RES   0.0000
10895 H   0.0910  28.1960  23.1120 H 1 RES   0.0000
10896 H   2.2910  28.1960  23.1120 H 1 RES   0.0000
10897 C   1.1910  28.1960  24.5120 C 1 RES   0.0000
10898 H   0.0910  28.1960  24.5120 H 1 RES   0.0000
10899 H   2.2910  28.1960  24.5120 H 1 RES   0.0000
10900 C   1.1910  28.1960  25.9120 C 1 RES   0.0000
10901 H   2.2610  28.1960  25.9120 H 1 RES   0.0000
10902 H   0.8340  27.5430  26.6810 H 1 RES   0.0000
10903 H   0.8340  29.1890  26.0930 H 1 RES   0.0000
10904 Si   1.1910  28.1960  11.9120 Si 1 RES   0.0000
10905 O   2.4983  28.1960  11.9120 O 1 RES   0.0000
10906 H   2.8255  28.8670  11.9436 H 1 RES   0.0000
10907 O  -0.2592  28.1960  12.0629 O 1 RES   0.0000
10908 H  -0.6269  27.3940  11.9803 H 1 RES   0.0000
10909 C   1.1910  44.7390  13.3120 C 1 RES   0.0000
10910 H   0.0910  44.7390  13.3120 H 1 RES   0.0000
10911 H   2.2910  44.7390  13.3120 H 1 RES   0.0000
10912 C   1.1910  44.7390  14.7120 C 1 RES   0.0000
10913 H   0.0910  44.7390  14.7120 H 1 RES   0.0000
10914 H   2.2910  44.7390  14.7120 H 1 RES   0.0000
10915 C   1.1910  44.7390  16.1120 C 1 RES   0.0000
10916 H   0.0910  44.7390  16.1120 H 1 RES   0.0000
10917 H   2.2910  44.7390  16.1120 H 1 RES   0.0000
10918 C   1.1910  44.7390  17.5120 C 1 RES   0.0000
10919 H   0.0910  44.7390  17.5120 H 1 RES   0.0000
10920 H   2.2910  44.7390  17.5120 H 1 RES   0.0000
10921 C   1.1910  44.7390  18.9120 C 1 RES   0.0000
10922 H   0.0910  44.7390  18.9120 H 1 RES   0.0000
10923 H   2.2910  44.7390  18.9120 H 1 RES   0.0000
10924 C   1.1910  44.7390  20.3120 C 1 RES   0.0000
10925 H   0.0910  44.7390  20.3120 H 1 RES   0.0000
10926 H   2.2910  44.7390  20.3120 H 1 RES   0.0000
10927 C   1.1910  44.7390  21.7120 C 1 RES   0.0000
10928 H   0.0910  44.7390  21.7120 H 1 RES   0.0000
10929 H   2.2910  44.7390  21.7120 H 1 RES   0.0000
10930 C   1.1910  44.7390  23.1120 C 1 RES   0.0000
10931 H   0.0910  44.7390  23.1120 H 1 RES   0.0000
10932 H   2.2910  44.7390  23.1120 H 1 RES   0.0000
10933 C   1.1910  44.7390  24.5120 C 1 RES   0.0000
10934 H   0.0910  44.7390  24.5120 H 1 RES   0.0000
10935 H   2.2910  44.7390  24.5120 H 1 RES   0.0000
10936 C   1.1910  44.7390  25.9120 C 1 RES   0.0000
10937 H   2.2610  44.7390  25.9120 H 1 RES   0.0000
10938 H   0.8340  44.0860  26.6810 H 1 RES   0.0000
10939 H   0.8340  45.7320  26.0930 H 1 RES   0.0000
10940 Si   1.1910  44.7390  11.9120 Si 1 RES   0.0000
10941 O   2.4983  44.7390  11.9120 O 1 RES   0.0000
10942 H   2.8255  45.4100  11.9436 H 1 RES   0.0000
10943 O  -0.2592  44.7390  12.0629 O 1 RES   0.0000
10944 H  -0.6269  43.9370  11.9803 H 1 RES   0.0000
10945 C   1.1910  61.2440  13.3120 C 1 RES   0.0000
10946 H   0.0910  61.2440  13.3120 H 1 RES   0.0000
10947 H   2.2910  61.2440  13.3120 H 1 RES   0.0000
10948 C   1.1910  61.2440  14.7120 C 1 RES   0.0000
10949 H   0.0910  61.2440  14.7120 H 1 RES   0.0000
10950 H   2.2910  61.2440  14.7120 H 1 RES   0.0000
10951 C   1.1910  61.2440  16.1120 C 1 RES   0.0000
10952 H   0.0910  61.2440  16.1120 H 1 RES   0.0000
10953 H   2.2910  61.2440  16.1120 H 1 RES   0.0000
10954 C   1.1910  61.2440  17.5120 C 1 RES   0.0000
10955 H   0.0910  61.2440  17.5120 H 1 RES   0.0000
10956 H   2.2910  61.2440  17.5120 H 1 RES   0.0000
10957 C   1.1910  61.2440  18.9120 C 1 RES   0.0000
10958 H   0.0910  61.2440  18.9120 H 1 RES   0.0000
10959 H   2.2910  61.2440  18.9120 H 1 RES   0.0000
10960 C   1.1910  61.2440  20.3120 C 1 RES   0.0000
10961 H   0.0910  61.2440  20.3120 H 1 RES   0.0000
10962 H   2.2910  61.2440  20.3120 H 1 RES   0.0000
10963 C   1.1910  61.2440  21.7120 C 1 RES   0.0000
10964 H   0.0910  61.2440  21.7120 H 1 RES   0.0000
10965 H   2.2910  61.2440  21.7120 H 1 RES   0.0000
10966 C   1.1910  61.2440  23.1120 C 1 RES   0.0000
10967 H   0.0910  61.2440  23.1120 H 1 RES   0.0000
10968 H   2.2910  61.2440  23.1120 H 1 RES   0.0000
10969 C   1.1910  61.2440  24.5120 C 1 RES   0.0000
10970 H   0.0910  61.2440  24.5120 H 1 RES   0.0000
10971 H   2.2910  61.2440  24.5120 H 1 RES   0.0000
10972 C   1.1910  61.2440  25.9120 C 1 RES   0.0000
10973 H   2.2610  61.2440  25.9120 H 1 RES   0.0000
10974 H   0.8340  60.5910  26.6810 H 1 RES   0.0000
10975 H   0.8340  62.2370  26.0930 H 1 RES   0.0000
10976 Si   1.1910  61.2440  11.9120 Si 1 RES   0.0000
10977 O   2.4983  61.2440  11.9120 O 1 RES   0.0000
10978 H   2.8255  61.9150  11.9436 H 1 RES   0.0000
10979 O  -0.2592  61.2440  12.0629 O 1 RES   0.0000
10980 H  -0.6269  60.4420  11.9803 H 1 RES   0.0000
10981 C   1.1910  77.7490  13.3120 C 1 RES   0.0000
10982 H   0.0910  77.7490  13.3120 H 1 RES   0.0000
10983 H   2.2910  77.7490  13.3120 H 1 RES   0.0000
10984 C   1.1910  77.7490  14.7120 C 1 RES   0.0000
10985 H   0.0910  77.7490  14.7120 H 1 RES   0.0000
10986 H   2.2910  77.7490  14.7120 H 1 RES   0.0000
10987 C   1.1910  77.7490  16.1120 C 1 RES   0.0000
10988 H   0.0910  77.7490  16.1120 H 1 RES   0.0000
10989 H   2.2910  77.7490  16.1120 H 1 RES   0.0000
10990 C   1.1910  77.7490  17.5120 C 1 RES   0.0000
10991 H   0.0910  77.7490  17.5120 H 1 RES   0.0000
10992 H   2.2910  77.7490  17.5120 H 1 RES   0.0000
10993 C   1.1910  77.7490  18.9120 C 1 RES   0.0000
10994 H   0.0910  77.7490  18.9120 H 1 RES   0.0000
10995 H   2.2910  77.7490  18.9120 H 1 RES   0.0000
10996 C   1.1910  77.7490  20.3120 C 1 RES   0.0000
10997 H   0.0910  77.7490  20.3120 H 1 RES   0.0000
10998 H   2.2910  77.7490  20.3120 H 1 RES   0.0000
10999 C   1.1910  77.7490  21.7120 C 1 RES   0.0000
11000 H   0.0910  77.7490  21.7120 H 1 RES   0.0000
11001 H   2.2910  77.7490  21.7120 H 1 RES   0.0000
11002 C   1.1910  77.7490  23.1120 C 1 RES   0.0000
11003 H   0.0910  77.7490  23.1120 H 1 RES   0.0000
11004 H   2.2910  77.7490  23.1120 H 1 RES   0.0000
11005 C   1.1910  77.7490  24.5120 C 1 RES   0.0000
11006 H   0.0910  77.7490  24.5120 H 1 RES   0.0000
11007 H   2.2910  77.7490  24.5120 H 1 RES   0.0000
11008 C   1.1910  77.7490  25.9120 C 1 RES   0.0000
11009 H   2.2610  77.7490  25.9120 H 1 RES   0.0000
11010 H   0.8340  77.0960  26.6810 H 1 RES   0.0000
11011 H   0.8340  78.7420  26.0930 H 1 RES   0.0000
11012 Si   1.1910  77.7490  11.9120 Si 1 RES   0.0000
11013 O   2.4983  77.7490  11.9120 O 1 RES   0.0000
11014 H   2.8255  78.4200  11.9436 H 1 RES   0.0000
11015 O  -0.2592  77.7490  12.0629 O 1 RES   0.0000
11016 H  -0.6269  76.9470  11.9803 H 1 RES   0.0000
11017 C  94.1440  90.1650  13.3120 C 1 RES   0.0000
11018 H  93.0440  90.1650  13.3120 H 1 RES   0.0000
11019 H  95.2440  90.1650  13.3120 H 1 RES   0.0000
11020 C  94.1440  90.1650  14.7120 C 1 RES   0.0000
11021 H  93.0440  90.1650  14.7120 H 1 RES   0.0000
11022 H  95.2440  90.1650  14.7120 H 1 RES   0.0000
11023 C  94.1440  90.1650  16.1120 C 1 RES   0.0000
11024 H  93.0440  90.1650  16.1120 H 1 RES   0.0000
11025 H  95.2440  90.1650  16.1120 H 1 RES   0.0000
11026 C  94.1440  90.1650  17.5120 C 1 RES   0.0000
11027 H  93.0440  90.1650  17.5120 H 1 RES   0.0000
11028 H  95.2440  90.1650  17.5120 H 1 RES   0.0000
11029 C  94.1440  90.1650  18.9120 C 1 RES   0.0000
11030 H  93.0440  90.1650  18.9120 H 1 RES   0.0000
11031 H  95.2440  90.1650  18.9120 H 1 RES   0.0000
11032 C  94.1440  90.1650  20.3120 C 1 RES   0.0000
11033 H  93.0440  90.1650  20.3120 H 1 RES   0.0000
11034 H  95.2440  90.1650  20.3120 H 1 RES   0.0000
11035 C  94.1440  90.1650  21.7120 C 1 RES   0.0000
11036 H  93.0440  90.1650  21.7120 H 1 RES   0.0000
11037 H  95.2440  90.1650  21.7120 H 1 RES   0.0000
11038 C  94.1440  90.1650  23.1120 C 1 RES   0.0000
11039 H  93.0440  90.1650  23.1120 H 1 RES   0.0000
11040 H  95.2440  90.1650  23.1120 H 1 RES   0.0000
11041 C  94.1440  90.1650  24.5120 C 1 RES   0.0000
11042 H  93.0440  90.1650  24.5120 H 1 RES   0.0000
11043 H  95.2440  90.1650  24.5120 H 1 RES   0.0000
11044 C  94.1440  90.1650  25.9120 C 1 RES   0.0000
11045 H  95.2140  90.1650  25.9120 H 1 RES   0.0000
11046 H  93.7870  89.5120  26.6810 H 1 RES   0.0000
11047 H  93.7870  91.1580  26.0930 H 1 RES   0.0000
11048 Si  94.1440  90.1650  11.9120 Si 1 RES   0.0000
11049 O  95.4513  90.1650  11.9120 O 1 RES   0.0000
11050 H  95.7785  90.8360  11.9436 H 1 RES   0.0000
11051 O  92.6938  90.1650  12.0629 O 1 RES   0.0000
11052 H  92.3260  89.3630  11.9803 H 1 RES   0.0000
11053 C  94.1440 106.6700  13.3120 C 1 RES   0.0000
11054 H  93.0440 106.6700  13.3120 H 1 RES   0.0000
11055 H  95.2440 106.6700  13.3120 H 1 RES   0.0000
11056 C  94.1440 106.6700  14.7120 C 1 RES   0.0000
11057 H  93.0440 106.6700  14.7120 H 1 RES   0.0000
11058 H  95.2440 106.6700  14.7120 H 1 RES   0.0000
11059 C  94.1440 106.6700  16.1120 C 1 RES   0.0000
11060 H  93.0440 106.6700  16.1120 H 1 RES   0.0000
11061 H  95.2440 106.6700  16.1120 H 1 RES   0.0000
11062 C  94.1440 106.6700  17.5120 C 1 RES   0.0000
11063 H  93.0440 106.6700  17.5120 H 1 RES   0.0000
11064 H  95.2440 106.6700  17.5120 H 1 RES   0.0000
11065 C  94.1440 106.6700  18.9120 C 1 RES   0.0000
11066 H  93.0440 106.6700  18.9120 H 1 RES   0.0000
11067 H  95.2440 106.6700  18.9120 H 1 RES   0.0000
11068 C  94.1440 106.6700  20.3120 C 1 RES   0.0000
11069 H  93.0440 106.6700  20.3120 H 1 RES   0.0000
11070 H  95.2440 106.6700  20.3120 H 1 RES   0.0000
11071 C  94.1440 106.6700  21.7120 C 1 RES   0.0000
11072 H  93.0440 106.6700  21.7120 H 1 RES   0.0000
11073 H  95.2440 106.6700  21.7120 H 1 RES   0.0000
11074 C  94.1440 106.6700  23.1120 C 1 RES   0.0000
11075 H  93.0440 106.6700  23.1120 H 1 RES   0.0000
11076 H  95.2440 106.6700  23.1120 H 1 RES   0.0000
11077 C  94.1440 106.6700  24.5120 C 1 RES   0.0000
11078 H  93.0440 106.6700  24.5120 H 1 RES   0.0000
11079 H  95.2440 106.6700  24.5120 H 1 RES   0.0000
11080 C  94.1440 106.6700  25.9120 C 1 RES   0.0000
11081 H  95.2140 106.6700  25.9120 H 1 RES   0.0000
11082 H  93.7870 106.0170  26.6810 H 1 RES   0.0000
11083 H  93.7870 107.6630  26.0930 H 1 RES   0.0000
11084 Si  94.1440 106.6700  11.9120 Si 1 RES   0.0000
11085 O  95.4513 106.6700  11.9120 O 1 RES   0.0000
11086 H  95.7785 107.3410  11.9436 H 1 RES   0.0000
11087 O  92.6938 106.6700  12.0629 O 1 RES   0.0000
11088 H  92.3260 105.8680  11.9803 H 1 RES   0.0000
11089 C  13.1030  -0.7250  13.3120 C 1 RES   0.0000
11090 H  12.0030  -0.7250  13.3120 H 1 RES   0.0000
11091 H  14.2030  -0.7250  13.3120 H 1 RES   0.0000
11092 C  13.1030  -0.7250  14.7120 C 1 RES   0.0000
11093 H  12.0030  -0.7250  14.7120 H 1 RES   0.0000
11094 H  14.2030  -0.7250  14.7120 H 1 RES   0.0000
11095 C  13.1030  -0.7250  16.1120 C 1 RES   0.0000
11096 H  12.0030  -0.7250  16.1120 H 1 RES   0.0000
11097 H  14.2030  -0.7250  16.1120 H 1 RES   0.0000
11098 C  13.1030  -0.7250  17.5120 C 1 RES   0.0000
11099 H  12.0030  -0.7250  17.5120 H 1 RES   0.0000
11100 H  14.2030  -0.7250  17.5120 H 1 RES   0.0000
11101 C  13.1030  -0.7250  18.9120 C 1 RES   0.0000
11102 H  12.0030  -0.7250  18.9120 H 1 RES   0.0000
11103 H  14.2030  -0.7250  18.9120 H 1 RES   0.0000
11104 C  13.1030  -0.7250  20.3120 C 1 RES   0.0000
11105 H  12.0030  -0.7250  20.3120 H 1 RES   0.0000
11106 H  14.2030  -0.7250  20.3120 H 1 RES   0.0000
11107 C  13.1030  -0.7250  21.7120 C 1 RES   0.0000
11108 H  12.0030  -0.7250  21.7120 H 1 RES   0.0000
11109 H  14.2030  -0.7250  21.7120 H 1 RES   0.0000
11110 C  13.1030  -0.7250  23.1120 C 1 RES   0.0000
11111 H  12.0030  -0.7250  23.1120 H 1 RES   0.0000
11112 H  14.2030  -0.7250  23.1120 H 1 RES   0.0000
11113 C  13.1030  -0.7250  24.5120 C 1 RES   0.0000
11114 H  12.0030  -0.7250  24.5120 H 1 RES   0.0000
11115 H  14.2030  -0.7250  24.5120 H 1 RES   0.0000
11116 C  13.1030  -0.7250  25.9120 C 1 RES   0.0000
11117 H  14.1730  -0.7250  25.9120 H 1 RES   0.0000
11118 H  12.7460  -1.3780  26.6810 H 1 RES   0.0000
11119 H  12.7460   0.2680  26.0930 H 1 RES   0.0000
11120 Si  13.1030  -0.7250  11.9120 Si 1 RES   0.0000
11121 O  14.4103  -0.7250  11.9120 O 1 RES   0.0000
11122 H  14.7375  -0.0540  11.9436 H 1 RES   0.0000
11123 O  11.6528  -0.7250  12.0629 O 1 RES   0.0000
11124 H  11.2851  -1.5270  11.9803 H 1 RES   0.0000
11125 C  13.1030  15.8170  13.3120 C 1 RES   0.0000
11126 H  12.0030  15.8170  13.3120 H 1 RES   0.0000
11127 H  14.2030  15.8170  13.3120 H 1 RES   0.0000
11128 C  13.1030  15.8170  14.7120 C 1 RES   0.0000
11129 H  12.0030  15.8170  14.7120 H 1 RES   0.0000
11130 H  14.2030  15.8170  14.7120 H 1 RES   0.0000
11131 C  13.1030  15.8170  16.1120 C 1 RES   0.0000
11132 H  12.0030  15.8170  16.1120 H 1 RES   0.0000
11133 H  14.2030  15.8170  16.1120 H 1 RES   0.0000
11134 C  13.1030  15.8170  17.5120 C 1 RES   0.0000
11135 H  12.0030  15.8170  17.5120 H 1 RES   0.0000
11136 H  14.2030  15.8170  17.5120 H 1 RES   0.0000
11137 C  13.1030  15.8170  18.9120 C 1 RES   0.0000
11138 H  12.0030  15.8170  18.9120 H 1 RES   0.0000
11139 H  14.2030  15.8170  18.9120 H 1 RES   0.0000
11140 C  13.1030  15.8170  20.3120 C 1 RES   0.0000
11141 H  12.0030  15.8170  20.3120 H 1 RES   0.0000
11142 H  14.2030  15.8170  20.3120 H 1 RES   0.0000
11143 C  13.1030  15.8170  21.7120 C 1 RES   0.0000
11144 H  12.0030  15.8170  21.7120 H 1 RES   0.0000
11145 H  14.2030  15.8170  21.7120 H 1 RES   0.0000
11146 C  13.1030  15.8170  23.1120 C 1 RES   0.0000
11147 H  12.0030  15.8170  23.1120 H 1 RES   0.0000
11148 H  14.2030  15.8170  23.1120 H 1 RES   0.0000
11149 C  13.1030  15.8170  24.5120 C 1 RES   0.0000
11150 H  12.0030  15.8170  24.5120 H 1 RES   0.0000
11151 H  14.2030  15.8170  24.5120 H 1 RES   0.0000
11152 C  13.1030  15.8170  25.9120 C 1 RES   0.0000
11153 H  14.1730  15.8170  25.9120 H 1 RES   0.0000
11154 H  12.7460  15.1640  26.6810 H 1 RES   0.0000
11155 H  12.7460  16.8100  26.0930 H 1 RES   0.0000
11156 Si  13.1030  15.8170  11.9120 Si 1 RES   0.0000
11157 O  14.4103  15.8170  11.9120 O 1 RES   0.0000
11158 H  14.7375  16.4880  11.9436 H 1 RES   0.0000
11159 O  11.6528  15.8170  12.0629 O 1 RES   0.0000
11160 H  11.2851  15.0150  11.9803 H 1 RES   0.0000
11161 C  10.7200  28.1960  13.3120 C 1 RES   0.0000
11162 H   9.6200  28.1960  13.3120 H 1 RES   0.0000
11163 H  11.8200  28.1960  13.3120 H 1 RES   0.0000
11164 C  10.7200  28.1960  14.7120 C 1 RES   0.0000
11165 H   9.6200  28.1960  14.7120 H 1 RES   0.0000
11166 H  11.8200  28.1960  14.7120 H 1 RES   0.0000
11167 C  10.7200  28.1960  16.1120 C 1 RES   0.0000
11168 H   9.6200  28.1960  16.1120 H 1 RES   0.0000
11169 H  11.8200  28.1960  16.1120 H 1 RES   0.0000
11170 C  10.7200  28.1960  17.5120 C 1 RES   0.0000
11171 H   9.6200  28.1960  17.5120 H 1 RES   0.0000
11172 H  11.8200  28.1960  17.5120 H 1 RES   0.0000
11173 C  10.7200  28.1960  18.9120 C 1 RES   0.0000
11174 H   9.6200  28.1960  18.9120 H 1 RES   0.0000
11175 H  11.8200  28.1960  18.9120 H 1 RES   0.0000
11176 C  10.7200  28.1960  20.3120 C 1 RES   0.0000
11177 H   9.6200  28.1960  20.3120 H 1 RES   0.0000
11178 H  11.8200  28.1960  20.3120 H 1 RES   0.0000
11179 C  10.7200  28.1960  21.7120 C 1 RES   0.0000
11180 H   9.6200  28.1960  21.7120 H 1 RES   0.0000
11181 H  11.8200  28.1960  21.7120 H 1 RES   0.0000
11182 C  10.7200  28.1960  23.1120 C 1 RES   0.0000
11183 H   9.6200  28.1960  23.1120 H 1 RES   0.0000
11184 H  11.8200  28.1960  23.1120 H 1 RES   0.0000
11185 C  10.7200  28.1960  24.5120 C 1 RES   0.0000
11186 H   9.6200  28.1960  24.5120 H 1 RES   0.0000
11187 H  11.8200  28.1960  24.5120 H 1 RES   0.0000
11188 C  10.7200  28.1960  25.9120 C 1 RES   0.0000
11189 H  11.7900  28.1960  25.9120 H 1 RES   0.0000
11190 H  10.3630  27.5430  26.6810 H 1 RES   0.0000
11191 H  10.3630  29.1890  26.0930 H 1 RES   0.0000
11192 Si  10.7200  28.1960  11.9120 Si 1 RES   0.0000
11193 O  12.0273  28.1960  11.9120 O 1 RES   0.0000
11194 H  12.3545  28.8670  11.9436 H 1 RES   0.0000
11195 O   9.2698  28.1960  12.0629 O 1 RES   0.0000
11196 H   8.9021  27.3940  11.9803 H 1 RES   0.0000
11197 C  10.7200  44.7390  13.3120 C 1 RES   0.0000
11198 H   9.6200  44.7390  13.3120 H 1 RES   0.0000
11199 H  11.8200  44.7390  13.3120 H 1 RES   0.0000
11200 C  10.7200  44.7390  14.7120 C 1 RES   0.0000
11201 H   9.6200  44.7390  14.7120 H 1 RES   0.0000
11202 H  11.8200  44.7390  14.7120 H 1 RES   0.0000
11203 C  10.7200  44.7390  16.1120 C 1 RES   0.0000
11204 H   9.6200  44.7390  16.1120 H 1 RES   0.0000
11205 H  11.8200  44.7390  16.1120 H 1 RES   0.0000
11206 C  10.7200  44.7390  17.5120 C 1 RES   0.0000
11207 H   9.6200  44.7390  17.5120 H 1 RES   0.0000
11208 H  11.8200  44.7390  17.5120 H 1 RES   0.0000
11209 C  10.7200  44.7390  18.9120 C 1 RES   0.0000
11210 H   9.6200  44.7390  18.9120 H 1 RES   0.0000
11211 H  11.8200  44.7390  18.9120 H 1 RES   0.0000
11212 C  10.7200  44.7390  20.3120 C 1 RES   0.0000
11213 H   9.6200  44.7390  20.3120 H 1 RES   0.0000
11214 H  11.8200  44.7390  20.3120 H 1 RES   0.0000
11215 C  10.7200  44.7390  21.7120 C 1 RES   0.0000
11216 H   9.6200  44.7390  21.7120 H 1 RES   0.0000
11217 H  11.8200  44.7390  21.7120 H 1 RES   0.0000
11218 C  10.7200  44.7390  23.1120 C 1 RES   0.0000
11219 H   9.6200  44.7390  23.1120 H 1 RES   0.0000
11220 H  11.8200  44.7390  23.1120 H 1 RES   0.0000
11221 C  10.7200  44.7390  24.5120 C 1 RES   0.0000
11222 H   9.6200  44.7390  24.5120 H 1 RES   0.0000
11223 H  11.8200  44.7390  24.5120 H 1 RES   0.0000
11224 C  10.7200  44.7390  25.9120 C 1 RES   0.0000
11225 H  11.7900  44.7390  25.9120 H 1 RES   0.0000
11226 H  10.3630  44.0860  26.6810 H 1 RES   0.0000
11227 H  10.3630  45.7320  26.0930 H 1 RES   0.0000
11228 Si  10.7200  44.7390  11.9120 Si 1 RES   0.0000
11229 O  12.0273  44.7390  11.9120 O 1 RES   0.0000
11230 H  12.3545  45.4100  11.9436 H 1 RES   0.0000
11231 O   9.2698  44.7390  12.0629 O 1 RES   0.0000
11232 H   8.9021  43.9370  11.9803 H 1 RES   0.0000
11233 C  10.7200  61.2440  13.3120 C 1 RES   0.0000
11234 H   9.6200  61.2440  13.3120 H 1 RES   0.0000
11235 H  11.8200  61.2440  13.3120 H 1 RES   0.0000
11236 C  10.7200  61.2440  14.7120 C 1 RES   0.0000
11237 H   9.6200  61.2440  14.7120 H 1 RES   0.0000
11238 H  11.8200  61.2440  14.7120 H 1 RES   0.0000
11239 C  10.7200  61.2440  16.1120 C 1 RES   0.0000
11240 H   9.6200  61.2440  16.1120 H 1 RES   0.0000
11241 H  11.8200  61.2440  16.1120 H 1 RES   0.0000
11242 C  10.7200  61.2440  17.5120 C 1 RES   0.0000
11243 H   9.6200  61.2440  17.5120 H 1 RES   0.0000
11244 H  11.8200  61.2440  17.5120 H 1 RES   0.0000
11245 C  10.7200  61.2440  18.9120 C 1 RES   0.0000
11246 H   9.6200  61.2440  18.9120 H 1 RES   0.0000
11247 H  11.8200  61.2440  18.9120 H 1 RES   0.0000
11248 C  10.7200  61.2440  20.3120 C 1 RES   0.0000
11249 H   9.6200  61.2440  20.3120 H 1 RES   0.0000
11250 H  11.8200  61.2440  20.3120 H 1 RES   0.0000
11251 C  10.7200  61.2440  21.7120 C 1 RES   0.0000
11252 H   9.6200  61.2440  21.7120 H 1 RES   0.0000
11253 H  11.8200  61.2440  21.7120 H 1 RES   0.0000
11254 C  10.7200  61.2440  23.1120 C 1 RES   0.0000
11255 H   9.6200  61.2440  23.1120 H 1 RES   0.0000
11256 H  11.8200  61.2440  23.1120 H 1 RES   0.0000
11257 C  10.7200  61.2440  24.5120 C 1 RES   0.0000
11258 H   9.6200  61.2440  24.5120 H 1 RES   0.0000
11259 H  11.8200  61.2440  24.5120 H 1 RES   0.0000
11260 C  10.7200  61.2440  25.9120 C 1 RES   0.0000
11261 H  11.7900  61.2440  25.9120 H 1 RES   0.0000
11262 H  10.3630  60.5910  26.6810 H 1 RES   0.0000
11263 H  10.3630  62.2370  26.0930 H 1 RES   0.0000
11264 Si  10.7200  61.2440  11.9120 Si 1 RES   0.0000
11265 O  12.0273  61.2440  11.9120 O 1 RES   0.0000
11266 H  12.3545  61.9150  11.9436 H 1 RES   0.0000
11267 O   9.2698  61.2440  12.0629 O 1 RES   0.0000
11268 H   8.9021  60.4420  11.9803 H 1 RES   0.0000
11269 C  10.7200  77.7490  13.3120 C 1 RES   0.0000
11270 H   9.6200  77.7490  13.3120 H 1 RES   0.0000
11271 H  11.8200  77.7490  13.3120 H 1 RES   0.0000
11272 C  10.7200  77.7490  14.7120 C 1 RES   0.0000
11273 H   9.6200  77.7490  14.7120 H 1 RES   0.0000
11274 H  11.8200  77.7490  14.7120 H 1 RES   0.0000
11275 C  10.7200  77.7490  16.1120 C 1 RES   0.0000
11276 H   9.6200  77.7490  16.1120 H 1 RES   0.0000
11277 H  11.8200  77.7490  16.1120 H 1 RES   0.0000
11278 C  10.7200  77.7490  17.5120 C 1 RES   0.0000
11279 H   9.6200  77.7490  17.5120 H 1 RES   0.0000
11280 H  11.8200  77.7490  17.5120 H 1 RES   0.0000
11281 C  10.7200  77.7490  18.9120 C 1 RES   0.0000
11282 H   9.6200  77.7490  18.9120 H 1 RES   0.0000
11283 H  11.8200  77.7490  18.9120 H 1 RES   0.0000
11284 C  10.7200  77.7490  20.3120 C 1 RES   0.0000
11285 H   9.6200  77.7490  20.3120 H 1 RES   0.0000
11286 H  11.8200  77.7490  20.3120 H 1 RES   0.0000
11287 C  10.7200  77.7490  21.7120 C 1 RES   0.0000
11288 H   9.6200  77.7490  21.7120 H 1 RES   0.0000
11289 H  11.8200  77.7490  21.7120 H 1 RES   0.0000
11290 C  10.7200  77.7490  23.1120 C 1 RES   0.0000
11291 H   9.6200  77.7490  23.1120 H 1 RES   0.0000
11292 H  11.8200  77.7490  23.1120 H 1 RES   0.0000
11293 C  10.7200  77.7490  24.5120 C 1 RES   0.0000
11294 H   9.6200  77.7490  24.5120 H 1 RES   0.0000
11295 H  11.8200  77.7490  24.5120 H 1 RES   0.0000
11296 C  10.7200  77.7490  25.9120 C 1 RES   0.0000
11297 H  11.7900  77.7490  25.9120 H 1 RES   0.0000
11298 H  10.3630  77.0960  26.6810 H 1 RES   0.0000
11299 H  10.3630  78.7420  26.0930 H 1 RES   0.0000
11300 Si  10.7200  77.7490  11.9120 Si 1 RES   0.0000
11301 O  12.0273  77.7490  11.9120 O 1 RES   0.0000
11302 H  12.3545  78.4200  11.9436 H 1 RES   0.0000
11303 O   9.2698  77.7490  12.0629 O 1 RES   0.0000
11304 H   8.9021  76.9470  11.9803 H 1 RES   0.0000
11305 C  13.1030  90.1650  13.3120 C 1 RES   0.0000
11306 H  12.0030  90.1650  13.3120 H 1 RES   0.0000
11307 H  14.2030  90.1650  13.3120 H 1 RES   0.0000
11308 C  13.1030  90.1650  14.7120 C 1 RES   0.0000
11309 H  12.0030  90.1650  14.7120 H 1 RES   0.0000
11310 H  14.2030  90.1650  14.7120 H 1 RES   0.0000
11311 C  13.1030  90.1650  16.1120 C 1 RES   0.0000
11312 H  12.0030  90.1650  16.1120 H 1 RES   0.0000
11313 H  14.2030  90.1650  16.1120 H 1 RES   0.0000
11314 C  13.1030  90.1650  17.5120 C 1 RES   0.0000
11315 H  12.0030  90.1650  17.5120 H 1 RES   0.0000
11316 H  14.2030  90.1650  17.5120 H 1 RES   0.0000
11317 C  13.1030  90.1650  18.9120 C 1 RES   0.0000
11318 H  12.0030  90.1650  18.9120 H 1 RES   0.0000
11319 H  14.2030  90.1650  18.9120 H 1 RES   0.0000
11320 C  13.1030  90.1650  20.3120 C 1 RES   0.0000
11321 H  12.0030  90.1650  20.3120 H 1 RES   0.0000
11322 H  14.2030  90.1650  20.3120 H 1 RES   0.0000
11323 C  13.1030  90.1650  21.7120 C 1 RES   0.0000
11324 H  12.0030  90.1650  21.7120 H 1 RES   0.0000
11325 H  14.2030  90.1650  21.7120 H 1 RES   0.0000
11326 C  13.1030  90.1650  23.1120 C 1 RES   0.0000
11327 H  12.0030  90.1650  23.1120 H 1 RES   0.0000
11328 H  14.2030  90.1650  23.1120 H 1 RES   0.0000
11329 C  13.1030  90.1650  24.5120 C 1 RES   0.0000
11330 H  12.0030  90.1650  24.5120 H 1 RES   0.0000
11331 H  14.2030  90.1650  24.5120 H 1 RES   0.0000
11332 C  13.1030  90.1650  25.9120 C 1 RES   0.0000
11333 H  14.1730  90.1650  25.9120 H 1 RES   0.0000
11334 H  12.7460  89.5120  26.6810 H 1 RES   0.0000
11335 H  12.7460  91.1580  26.0930 H 1 RES   0.0000
11336 Si  13.1030  90.1650  11.9120 Si 1 RES   0.0000
11337 O  14.4103  90.1650  11.9120 O 1 RES   0.0000
11338 H  14.7375  90.8360  11.9436 H 1 RES   0.0000
11339 O  11.6528  90.1650  12.0629 O 1 RES   0.0000
11340 H  11.2851  89.3630  11.9803 H 1 RES   0.0000
11341 C  13.1030 106.6700  13.3120 C 1 RES   0.0000
11342 H  12.0030 106.6700  13.3120 H 1 RES   0.0000
11343 H  14.2030 106.6700  13.3120 H 1 RES   0.0000
11344 C  13.1030 106.6700  14.7120 C 1 RES   0.0000
11345 H  12.0030 106.6700  14.7120 H 1 RES   0.0000
11346 H  14.2030 106.6700  14.7120 H 1 RES   0.0000
11347 C  13.1030 106.6700  16.1120 C 1 RES   0.0000
11348 H  12.0030 106.6700  16.1120 H 1 RES   0.0000
11349 H  14.2030 106.6700  16.1120 H 1 RES   0.0000
11350 C  13.1030 106.6700  17.5120 C 1 RES   0.0000
11351 H  12.0030 106.6700  17.5120 H 1 RES   0.0000
11352 H  14.2030 106.6700  17.5120 H 1 RES   0.0000
11353 C  13.1030 106.6700  18.9120 C 1 RES   0.0000
11354 H  12.0030 106.6700  18.9120 H 1 RES   0.0000
11355 H  14.2030 106.6700  18.9120 H 1 RES   0.0000
11356 C  13.1030 106.6700  20.3120 C 1 RES   0.0000
11357 H  12.0030 106.6700  20.3120 H 1 RES   0.0000
11358 H  14.2030 106.6700  20.3120 H 1 RES   0.0000
11359 C  13.1030 106.6700  21.7120 C 1 RES   0.0000
11360 H  12.0030 106.6700  21.7120 H 1 RES   0.0000
11361 H  14.2030 106.6700  21.7120 H 1 RES   0.0000
11362 C  13.1030 106.6700  23.1120 C 1 RES   0.0000
11363 H  12.0030 106.6700  23.1120 H 1 RES   0.0000
11364 H  14.2030 106.6700  23.1120 H 1 RES   0.0000
11365 C  13.1030 106.6700  24.5120 C 1 RES   0.0000
11366 H  12.0030 106.6700  24.5120 H 1 RES   0.0000
11367 H  14.2030 106.6700  24.5120 H 1 RES   0.0000
11368 C  13.1030 106.6700  25.9120 C 1 RES   0.0000
11369 H  14.1730 106.6700  25.9120 H 1 RES   0.0000
11370 H  12.7460 106.0170  26.6810 H 1 RES   0.0000
11371 H  12.7460 107.6630  26.0930 H 1 RES   0.0000
11372 Si  13.1030 106.6700  11.9120 Si 1 RES   0.0000
11373 O  14.4103 106.6700  11.9120 O 1 RES   0.0000
11374 H  14.7375 107.3410  11.9436 H 1 RES   0.0000
11375 O  11.6528 106.6700  12.0629 O 1 RES   0.0000
11376 H  11.2851 105.8680  11.9803 H 1 RES   0.0000
11377 C  22.6320  -0.7250  13.3120 C 1 RES   0.0000
11378 H  21.5320  -0.7250  13.3120 H 1 RES   0.0000
11379 H  23.7320  -0.7250  13.3120 H 1 RES   0.0000
11380 C  22.6320  -0.7250  14.7120 C 1 RES   0.0000
11381 H  21.5320  -0.7250  14.7120 H 1 RES   0.0000
11382 H  23.7320  -0.7250  14.7120 H 1 RES   0.0000
11383 C  22.6320  -0.7250  16.1120 C 1 RES   0.0000
11384 H  21.5320  -0.7250  16.1120 H 1 RES   0.0000
11385 H  23.7320  -0.7250  16.1120 H 1 RES   0.0000
11386 C  22.6320  -0.7250  17.5120 C 1 RES   0.0000
11387 H  21.5320  -0.7250  17.5120 H 1 RES   0.0000
11388 H  23.7320  -0.7250  17.5120 H 1 RES   0.0000
11389 C  22.6320  -0.7250  18.9120 C 1 RES   0.0000
11390 H  21.5320  -0.7250  18.9120 H 1 RES   0.0000
11391 H  23.7320  -0.7250  18.9120 H 1 RES   0.0000
11392 C  22.6320  -0.7250  20.3120 C 1 RES   0.0000
11393 H  21.5320  -0.7250  20.3120 H 1 RES   0.0000
11394 H  23.7320  -0.7250  20.3120 H 1 RES   0.0000
11395 C  22.6320  -0.7250  21.7120 C 1 RES   0.0000
11396 H  21.5320  -0.7250  21.7120 H 1 RES   0.0000
11397 H  23.7320  -0.7250  21.7120 H 1 RES   0.0000
11398 C  22.6320  -0.7250  23.1120 C 1 RES   0.0000
11399 H  21.5320  -0.7250  23.1120 H 1 RES   0.0000
11400 H  23.7320  -0.7250  23.1120 H 1 RES   0.0000
11401 C  22.6320  -0.7250  24.5120 C 1 RES   0.0000
11402 H  21.5320  -0.7250  24.5120 H 1 RES   0.0000
11403 H  23.7320  -0.7250  24.5120 H 1 RES   0.0000
11404 C  22.6320  -0.7250  25.9120 C 1 RES   0.0000
11405 H  23.7020  -0.7250  25.9120 H 1 RES   0.0000
11406 H  22.2750  -1.3780  26.6810 H 1 RES   0.0000
11407 H  22.2750   0.2680  26.0930 H 1 RES   0.0000
11408 Si  22.6320  -0.7250  11.9120 Si 1 RES   0.0000
11409 O  23.9393  -0.7250  11.9120 O 1 RES   0.0000
11410 H  24.2665  -0.0540  11.9436 H 1 RES   0.0000
11411 O  21.1818  -0.7250  12.0629 O 1 RES   0.0000
11412 H  20.8141  -1.5270  11.9803 H 1 RES   0.0000
11413 C  22.6320  15.8170  13.3120 C 1 RES   0.0000
11414 H  21.5320  15.8170  13.3120 H 1 RES   0.0000
11415 H  23.7320  15.8170  13.3120 H 1 RES   0.0000
11416 C  22.6320  15.8170  14.7120 C 1 RES   0.0000
11417 H  21.5320  15.8170  14.7120 H 1 RES   0.0000
11418 H  23.7320  15.8170  14.7120 H 1 RES   0.0000
11419 C  22.6320  15.8170  16.1120 C 1 RES   0.0000
11420 H  21.5320  15.8170  16.1120 H 1 RES   0.0000
11421 H  23.7320  15.8170  16.1120 H 1 RES   0.0000
11422 C  22.6320  15.8170  17.5120 C 1 RES   0.0000
11423 H  21.5320  15.8170  17.5120 H 1 RES   0.0000
11424 H  23.7320  15.8170  17.5120 H 1 RES   0.0000
11425 C  22.6320  15.8170  18.9120 C 1 RES   0.0000
11426 H  21.5320  15.8170  18.9120 H 1 RES   0.0000
11427 H  23.7320  15.8170  18.9120 H 1 RES   0.0000
11428 C  22.6320  15.8170  20.3120 C 1 RES   0.0000
11429 H  21.5320  15.8170  20.3120 H 1 RES   0.0000
11430 H  23.7320  15.8170  20.3120 H 1 RES   0.0000
11431 C  22.6320  15.8170  21.7120 C 1 RES   0.0000
11432 H  21.5320  15.8170  21.7120 H 1 RES   0.0000
11433 H  23.7320  15.8170  21.7120 H 1 RES   0.0000
11434 C  22.6320  15.8170  23.1120 C 1 RES   0.0000
11435 H  21.5320  15.8170  23.1120 H 1 RES   0.0000
11436 H  23.7320  15.8170  23.1120 H 1 RES   0.0000
11437 C  22.6320  15.8170  24.5120 C 1 RES   0.0000
11438 H  21.5320  15.8170  24.5120 H 1 RES   0.0000
11439 H  23.7320  15.8170  24.5120 H 1 RES   0.0000
11440 C  22.6320  15.8170  25.9120 C 1 RES   0.0000
11441 H  23.7020  15.8170  25.9120 H 1 RES   0.0000
11442 H  22.2750  15.1640  26.6810 H 1 RES   0.0000
11443 H  22.2750  16.8100  26.0930 H 1 RES   0.0000
11444 Si  22.6320  15.8170  11.9120 Si 1 RES   0.0000
11445 O  23.9393  15.8170  11.9120 O 1 RES   0.0000
11446 H  24.2665  16.4880  11.9436 H 1 RES   0.0000
11447 O  21.1818  15.8170  12.0629 O 1 RES   0.0000
11448 H  20.8141  15.0150  11.9803 H 1 RES   0.0000
11449 C  25.0140  28.1960  13.3120 C 1 RES   0.0000
11450 H  23.9140  28.1960  13.3120 H 1 RES   0.0000
11451 H  26.1140  28.1960  13.3120 H 1 RES   0.0000
11452 C  25.0140  28.1960  14.7120 C 1 RES   0.0000
11453 H  23.9140  28.1960  14.7120 H 1 RES   0.0000
11454 H  26.1140  28.1960  14.7120 H 1 RES   0.0000
11455 C  25.0140  28.1960  16.1120 C 1 RES   0.0000
11456 H  23.9140  28.1960  16.1120 H 1 RES   0.0000
11457 H  26.1140  28.1960  16.1120 H 1 RES   0.0000
11458 C  25.0140  28.1960  17.5120 C 1 RES   0.0000
11459 H  23.9140  28.1960  17.5120 H 1 RES   0.0000
11460 H  26.1140  28.1960  17.5120 H 1 RES   0.0000
11461 C  25.0140  28.1960  18.9120 C 1 RES   0.0000
11462 H  23.9140  28.1960  18.9120 H 1 RES   0.0000
11463 H  26.1140  28.1960  18.9120 H 1 RES   0.0000
11464 C  25.0140  28.1960  20.3120 C 1 RES   0.0000
11465 H  23.9140  28.1960  20.3120 H 1 RES   0.0000
11466 H  26.1140  28.1960  20.3120 H 1 RES   0.0000
11467 C  25.0140  28.1960  21.7120 C 1 RES   0.0000
11468 H  23.9140  28.1960  21.7120 H 1 RES   0.0000
11469 H  26.1140  28.1960  21.7120 H 1 RES   0.0000
11470 C  25.0140  28.1960  23.1120 C 1 RES   0.0000
11471 H  23.9140  28.1960  23.1120 H 1 RES   0.0000
11472 H  26.1140  28.1960  23.1120 H 1 RES   0.0000
11473 C  25.0140  28.1960  24.5120 C 1 RES   0.0000
11474 H  23.9140  28.1960  24.5120 H 1 RES   0.0000
11475 H  26.1140  28.1960  24.5120 H 1 RES   0.0000
11476 C  25.0140  28.1960  25.9120 C 1 RES   0.0000
11477 H  26.0840  28.1960  25.9120 H 1 RES   0.0000
11478 H  24.6570  27.5430  26.6810 H 1 RES   0.0000
11479 H  24.6570  29.1890  26.0930 H 1 RES   0.0000
11480 Si  25.0140  28.1960  11.9120 Si 1 RES   0.0000
11481 O  26.3213  28.1960  11.9120 O 1 RES   0.0000
11482 H  26.6485  28.8670  11.9436 H 1 RES   0.0000
11483 O  23.5638  28.1960  12.0629 O 1 RES   0.0000
11484 H  23.1961  27.3940  11.9803 H 1 RES   0.0000
11485 C  25.0140  44.7390  13.3120 C 1 RES   0.0000
11486 H  23.9140  44.7390  13.3120 H 1 RES   0.0000
11487 H  26.1140  44.7390  13.3120 H 1 RES   0.0000
11488 C  25.0140  44.7390  14.7120 C 1 RES   0.0000
11489 H  23.9140  44.7390  14.7120 H 1 RES   0.0000
11490 H  26.1140  44.7390  14.7120 H 1 RES   0.0000
11491 C  25.0140  44.7390  16.1120 C 1 RES   0.0000
11492 H  23.9140  44.7390  16.1120 H 1 RES   0.0000
11493 H  26.1140  44.7390  16.1120 H 1 RES   0.0000
11494 C  25.0140  44.7390  17.5120 C 1 RES   0.0000
11495 H  23.9140  44.7390  17.5120 H 1 RES   0.0000
11496 H  26.1140  44.7390  17.5120 H 1 RES   0.0000
11497 C  25.0140  44.7390  18.9120 C 1 RES   0.0000
11498 H  23.9140  44.7390  18.9120 H 1 RES   0.0000
11499 H  26.1140  44.7390  18.9120 H 1 RES   0.0000
11500 C  25.0140  44.7390  20.3120 C 1 RES   0.0000
11501 H  23.9140  44.7390  20.3120 H 1 RES   0.0000
11502 H  26.1140  44.7390  20.3120 H 1 RES   0.0000
11503 C  25.0140  44.7390  21.7120 C 1 RES   0.0000
11504 H  23.9140  44.7390  21.7120 H 1 RES   0.0000
11505 H  26.1140  44.7390  21.7120 H 1 RES   0.0000
11506 C  25.0140  44.7390  23.1120 C 1 RES   0.0000
11507 H  23.9140  44.7390  23.1120 H 1 RES   0.0000
11508 H  26.1140  44.7390  23.1120 H 1 RES   0.0000
11509 C  25.0140  44.7390  24.5120 C 1 RES   0.0000
11510 H  23.9140  44.7390  24.5120 H 1 RES   0.0000
11511 H  26.1140  44.7390  24.5120 H 1 RES   0.0000
11512 C  25.0140  44.7390  25.9120 C 1 RES   0.0000
11513 H  26.0840  44.7390  25.9120 H 1 RES   0.0000
11514 H  24.6570  44.0860  26.6810 H 1 RES   0.0000
11515 H  24.6570  45.7320  26.0930 H 1 RES   0.0000
11516 Si  25.0140  44.7390  11.9120 Si 1 RES   0.0000
11517 O  26.3213  44.7390  11.9120 O 1 RES   0.0000
11518 H  26.6485  45.4100  11.9436 H 1 RES   0.0000
11519 O  23.5638  44.7390  12.0629 O 1 RES   0.0000
11520 H  23.1961  43.9370  11.9803 H 1 RES   0.0000
11521 C  25.0140  61.2440  13.3120 C 1 RES   0.0000
11522 H  23.9140  61.2440  13.3120 H 1 RES   0.0000
11523 H  26.1140  61.2440  13.3120 H 1 RES   0.0000
11524 C  25.0140  61.2440  14.7120 C 1 RES   0.0000
11525 H  23.9140  61.2440  14.7120 H 1 RES   0.0000
11526 H  26.1140  61.2440  14.7120 H 1 RES   0.0000
11527 C  25.0140  61.2440  16.1120 C 1 RES   0.0000
11528 H  23.9140  61.2440  16.1120 H 1 RES   0.0000
11529 H  26.1140  61.2440  16.1120 H 1 RES   0.0000
11530 C  25.0140  61.2440  17.5120 C 1 RES   0.0000
11531 H  23.9140  61.2440  17.5120 H 1 RES   0.0000
11532 H  26.1140  61.2440  17.5120 H 1 RES   0.0000
11533 C  25.0140  61.2440  18.9120 C 1 RES   0.0000
11534 H  23.9140  61.2440  18.9120 H 1 RES   0.0000
11535 H  26.1140  61.2440  18.9120 H 1 RES   0.0000
11536 C  25.0140  61.2440  20.3120 C 1 RES   0.0000
11537 H  23.9140  61.2440  20.3120 H 1 RES   0.0000
11538 H  26.1140  61.2440  20.3120 H 1 RES   0.0000
11539 C  25.0140  61.2440  21.7120 C 1 RES   0.0000
11540 H  23.9140  61.2440  21.7120 H 1 RES   0.0000
11541 H  26.1140  61.2440  21.7120 H 1 RES   0.0000
11542 C  25.0140  61.2440  23.1120 C 1 RES   0.0000
11543 H  23.9140  61.2440  23.1120 H 1 RES   0.0000
11544 H  26.1140  61.2440  23.1120 H 1 RES   0.0000
11545 C  25.0140  61.2440  24.5120 C 1 RES   0.0000
11546 H  23.9140  61.2440  24.5120 H 1 RES   0.0000
11547 H  26.1140  61.2440  24.5120 H 1 RES   0.0000
11548 C  25.0140  61.2440  25.9120 C 1 RES   0.0000
11549 H  26.0840  61.2440  25.9120 H 1 RES   0.0000
11550 H  24.6570  60.5910  26.6810 H 1 RES   0.0000
11551 H  24.6570  62.2370  26.0930 H 1 RES   0.0000
11552 Si  25.0140  61.2440  11.9120 Si 1 RES   0.0000
11553 O  26.3213  61.2440  11.9120 O 1 RES   0.0000
11554 H  26.6485  61.9150  11.9436 H 1 RES   0.0000
11555 O  23.5638  61.2440  12.0629 O 1 RES   0.0000
11556 H  23.1961  60.4420  11.9803 H 1 RES   0.0000
11557 C  22.6320  73.6220  13.3120 C 1 RES   0.0000
11558 H  21.5320  73.6220  13.3120 H 1 RES   0.0000
11559 H  23.7320  73.6220  13.3120 H 1 RES   0.0000
11560 C  22.6320  73.6220  14.7120 C 1 RES   0.0000
11561 H  21.5320  73.6220  14.7120 H 1 RES   0.0000
11562 H  23.7320  73.6220  14.7120 H 1 RES   0.0000
11563 C  22.6320  73.6220  16.1120 C 1 RES   0.0000
11564 H  21.5320  73.6220  16.1120 H 1 RES   0.0000
11565 H  23.7320  73.6220  16.1120 H 1 RES   0.0000
11566 C  22.6320  73.6220  17.5120 C 1 RES   0.0000
11567 H  21.5320  73.6220  17.5120 H 1 RES   0.0000
11568 H  23.7320  73.6220  17.5120 H 1 RES   0.0000
11569 C  22.6320  73.6220  18.9120 C 1 RES   0.0000
11570 H  21.5320  73.6220  18.9120 H 1 RES   0.0000
11571 H  23.7320  73.6220  18.9120 H 1 RES   0.0000
11572 C  22.6320  73.6220  20.3120 C 1 RES   0.0000
11573 H  21.5320  73.6220  20.3120 H 1 RES   0.0000
11574 H  23.7320  73.6220  20.3120 H 1 RES   0.0000
11575 C  22.6320  73.6220  21.7120 C 1 RES   0.0000
11576 H  21.5320  73.6220  21.7120 H 1 RES   0.0000
11577 H  23.7320  73.6220  21.7120 H 1 RES   0.0000
11578 C  22.6320  73.6220  23.1120 C 1 RES   0.0000
11579 H  21.5320  73.6220  23.1120 H 1 RES   0.0000
11580 H  23.7320  73.6220  23.1120 H 1 RES   0.0000
11581 C  22.6320  73.6220  24.5120 C 1 RES   0.0000
11582 H  21.5320  73.6220  24.5120 H 1 RES   0.0000
11583 H  23.7320  73.6220  24.5120 H 1 RES   0.0000
11584 C  22.6320  73.6220  25.9120 C 1 RES   0.0000
11585 H  23.7020  73.6220  25.9120 H 1 RES   0.0000
11586 H  22.2750  72.9690  26.6810 H 1 RES   0.0000
11587 H  22.2750  74.6150  26.0930 H 1 RES   0.0000
11588 Si  22.6320  73.6220  11.9120 Si 1 RES   0.0000
11589 O  23.9393  73.6220  11.9120 O 1 RES   0.0000
11590 H  24.2665  74.2930  11.9436 H 1 RES   0.0000
11591 O  21.1818  73.6220  12.0629 O 1 RES   0.0000
11592 H  20.8141  72.8200  11.9803 H 1 RES   0.0000
11593 C  22.6320  90.1650  13.3120 C 1 RES   0.0000
11594 H  21.5320  90.1650  13.3120 H 1 RES   0.0000
11595 H  23.7320  90.1650  13.3120 H 1 RES   0.0000
11596 C  22.6320  90.1650  14.7120 C 1 RES   0.0000
11597 H  21.5320  90.1650  14.7120 H 1 RES   0.0000
11598 H  23.7320  90.1650  14.7120 H 1 RES   0.0000
11599 C  22.6320  90.1650  16.1120 C 1 RES   0.0000
11600 H  21.5320  90.1650  16.1120 H 1 RES   0.0000
11601 H  23.7320  90.1650  16.1120 H 1 RES   0.0000
11602 C  22.6320  90.1650  17.5120 C 1 RES   0.0000
11603 H  21.5320  90.1650  17.5120 H 1 RES   0.0000
11604 H  23.7320  90.1650  17.5120 H 1 RES   0.0000
11605 C  22.6320  90.1650  18.9120 C 1 RES   0.0000
11606 H  21.5320  90.1650  18.9120 H 1 RES   0.0000
11607 H  23.7320  90.1650  18.9120 H 1 RES   0.0000
11608 C  22.6320  90.1650  20.3120 C 1 RES   0.0000
11609 H  21.5320  90.1650  20.3120 H 1 RES   0.0000
11610 H  23.7320  90.1650  20.3120 H 1 RES   0.0000
11611 C  22.6320  90.1650  21.7120 C 1 RES   0.0000
11612 H  21.5320  90.1650  21.7120 H 1 RES   0.0000
11613 H  23.7320  90.1650  21.7120 H 1 RES   0.0000
11614 C  22.6320  90.1650  23.1120 C 1 RES   0.0000
11615 H  21.5320  90.1650  23.1120 H 1 RES   0.0000
11616 H  23.7320  90.1650  23.1120 H 1 RES   0.0000
11617 C  22.6320  90.1650  24.5120 C 1 RES   0.0000
11618 H  21.5320  90.1650  24.5120 H 1 RES   0.0000
11619 H  23.7320  90.1650  24.5120 H 1 RES   0.0000
11620 C  22.6320  90.1650  25.9120 C 1 RES   0.0000
11621 H  23.7020  90.1650  25.9120 H 1 RES   0.0000
11622 H  22.2750  89.5120  26.6810 H 1 RES   0.0000
11623 H  22.2750  91.1580  26.0930 H 1 RES   0.0000
11624 Si  22.6320  90.1650  11.9120 Si 1 RES   0.0000
11625 O  23.9393  90.1650  11.9120 O 1 RES   0.0000
11626 H  24.2665  90.8360  11.9436 H 1 RES   0.0000
11627 O  21.1818  90.1650  12.0629 O 1 RES   0.0000
11628 H  20.8141  89.3630  11.9803 H 1 RES   0.0000
11629 C  22.6320 106.6700  13.3120 C 1 RES   0.0000
11630 H  21.5320 106.6700  13.3120 H 1 RES   0.0000
11631 H  23.7320 106.6700  13.3120 H 1 RES   0.0000
11632 C  22.6320 106.6700  14.7120 C 1 RES   0.0000
11633 H  21.5320 106.6700  14.7120 H 1 RES   0.0000
11634 H  23.7320 106.6700  14.7120 H 1 RES   0.0000
11635 C  22.6320 106.6700  16.1120 C 1 RES   0.0000
11636 H  21.5320 106.6700  16.1120 H 1 RES   0.0000
11637 H  23.7320 106.6700  16.1120 H 1 RES   0.0000
11638 C  22.6320 106.6700  17.5120 C 1 RES   0.0000
11639 H  21.5320 106.6700  17.5120 H 1 RES   0.0000
11640 H  23.7320 106.6700  17.5120 H 1 RES   0.0000
11641 C  22.6320 106.6700  18.9120 C 1 RES   0.0000
11642 H  21.5320 106.6700  18.9120 H 1 RES   0.0000
11643 H  23.7320 106.6700  18.9120 H 1 RES   0.0000
11644 C  22.6320 106.6700  20.3120 C 1 RES   0.0000
11645 H  21.5320 106.6700  20.3120 H 1 RES   0.0000
11646 H  23.7320 106.6700  20.3120 H 1 RES   0.0000
11647 C  22.6320 106.6700  21.7120 C 1 RES   0.0000
11648 H  21.5320 106.6700  21.7120 H 1 RES   0.0000
11649 H  23.7320 106.6700  21.7120 H 1 RES   0.0000
11650 C  22.6320 106.6700  23.1120 C 1 RES   0.0000
11651 H  21.5320 106.6700  23.1120 H 1 RES   0.0000
11652 H  23.7320 106.6700  23.1120 H 1 RES   0.0000
11653 C  22.6320 106.6700  24.5120 C 1 RES   0.0000
11654 H  21.5320 106.6700  24.5120 H 1 RES   0.0000
11655 H  23.7320 106.6700  24.5120 H 1 RES   0.0000
11656 C  22.6320 106.6700  25.9120 C 1 RES   0.0000
11657 H  23.7020 106.6700  25.9120 H 1 RES   0.0000
11658 H  22.2750 106.0170  26.6810 H 1 RES   0.0000
11659 H  22.2750 107.6630  26.0930 H 1 RES   0.0000
11660 Si  22.6320 106.6700  11.9120 Si 1 RES   0.0000
11661 O  23.9393 106.6700  11.9120 O 1 RES   0.0000
11662 H  24.2665 107.3410  11.9436 H 1 RES   0.0000
11663 O  21.1818 106.6700  12.0629 O 1 RES   0.0000
11664 H  20.8141 105.8680  11.9803 H 1 RES   0.0000
11665 C  36.9250  -0.7250  13.3120 C 1 RES   0.0000
11666 H  35.8250  -0.7250  13.3120 H 1 RES   0.0000
11667 H  38.0250  -0.7250  13.3120 H 1 RES   0.0000
11668 C  36.9250  -0.7250  14.7120 C 1 RES   0.0000
11669 H  35.8250  -0.7250  14.7120 H 1 RES   0.0000
11670 H  38.0250  -0.7250  14.7120 H 1 RES   0.0000
11671 C  36.9250  -0.7250  16.1120 C 1 RES   0.0000
11672 H  35.8250  -0.7250  16.1120 H 1 RES   0.0000
11673 H  38.0250  -0.7250  16.1120 H 1 RES   0.0000
11674 C  36.9250  -0.7250  17.5120 C 1 RES   0.0000
11675 H  35.8250  -0.7250  17.5120 H 1 RES   0.0000
11676 H  38.0250  -0.7250  17.5120 H 1 RES   0.0000
11677 C  36.9250  -0.7250  18.9120 C 1 RES   0.0000
11678 H  35.8250  -0.7250  18.9120 H 1 RES   0.0000
11679 H  38.0250  -0.7250  18.9120 H 1 RES   0.0000
11680 C  36.9250  -0.7250  20.3120 C 1 RES   0.0000
11681 H  35.8250  -0.7250  20.3120 H 1 RES   0.0000
11682 H  38.0250  -0.7250  20.3120 H 1 RES   0.0000
11683 C  36.9250  -0.7250  21.7120 C 1 RES   0.0000
11684 H  35.8250  -0.7250  21.7120 H 1 RES   0.0000
11685 H  38.0250  -0.7250  21.7120 H 1 RES   0.0000
11686 C  36.9250  -0.7250  23.1120 C 1 RES   0.0000
11687 H  35.8250  -0.7250  23.1120 H 1 RES   0.0000
11688 H  38.0250  -0.7250  23.1120 H 1 RES   0.0000
11689 C  36.9250  -0.7250  24.5120 C 1 RES   0.0000
11690 H  35.8250  -0.7250  24.5120 H 1 RES   0.0000
11691 H  38.0250  -0.7250  24.5120 H 1 RES   0.0000
11692 C  36.9250  -0.7250  25.9120 C 1 RES   0.0000
11693 H  37.9950  -0.7250  25.9120 H 1 RES   0.0000
11694 H  36.5680  -1.3780  26.6810 H 1 RES   0.0000
11695 H  36.5680   0.2680  26.0930 H 1 RES   0.0000
11696 Si  36.9250  -0.7250  11.9120 Si 1 RES   0.0000
11697 O  38.2323  -0.7250  11.9120 O 1 RES   0.0000
11698 H  38.5595  -0.0540  11.9436 H 1 RES   0.0000
11699 O  35.4748  -0.7250  12.0629 O 1 RES   0.0000
11700 H  35.1071  -1.5270  11.9803 H 1 RES   0.0000
11701 C  36.9250  15.8170  13.3120 C 1 RES   0.0000
11702 H  35.8250  15.8170  13.3120 H 1 RES   0.0000
11703 H  38.0250  15.8170  13.3120 H 1 RES   0.0000
11704 C  36.9250  15.8170  14.7120 C 1 RES   0.0000
11705 H  35.8250  15.8170  14.7120 H 1 RES   0.0000
11706 H  38.0250  15.8170  14.7120 H 1 RES   0.0000
11707 C  36.9250  15.8170  16.1120 C 1 RES   0.0000
11708 H  35.8250  15.8170  16.1120 H 1 RES   0.0000
11709 H  38.0250  15.8170  16.1120 H 1 RES   0.0000
11710 C  36.9250  15.8170  17.5120 C 1 RES   0.0000
11711 H  35.8250  15.8170  17.5120 H 1 RES   0.0000
11712 H  38.0250  15.8170  17.5120 H 1 RES   0.0000
11713 C  36.9250  15.8170  18.9120 C 1 RES   0.0000
11714 H  35.8250  15.8170  18.9120 H 1 RES   0.0000
11715 H  38.0250  15.8170  18.9120 H 1 RES   0.0000
11716 C  36.9250  15.8170  20.3120 C 1 RES   0.0000
11717 H  35.8250  15.8170  20.3120 H 1 RES   0.0000
11718 H  38.0250  15.8170  20.3120 H 1 RES   0.0000
11719 C  36.9250  15.8170  21.7120 C 1 RES   0.0000
11720 H  35.8250  15.8170  21.7120 H 1 RES   0.0000
11721 H  38.0250  15.8170  21.7120 H 1 RES   0.0000
11722 C  36.9250  15.8170  23.1120 C 1 RES   0.0000
11723 H  35.8250  15.8170  23.1120 H 1 RES   0.0000
11724 H  38.0250  15.8170  23.1120 H 1 RES   0.0000
11725 C  36.9250  15.8170  24.5120 C 1 RES   0.0000
11726 H  35.8250  15.8170  24.5120 H 1 RES   0.0000
11727 H  38.0250  15.8170  24.5120 H 1 RES   0.0000
11728 C  36.9250  15.8170  25.9120 C 1 RES   0.0000
11729 H  37.9950  15.8170  25.9120 H 1 RES   0.0000
11730 H  36.5680  15.1640  26.6810 H 1 RES   0.0000
11731 H  36.5680  16.8100  26.0930 H 1 RES   0.0000
11732 Si  36.9250  15.8170  11.9120 Si 1 RES   0.0000
11733 O  38.2323  15.8170  11.9120 O 1 RES   0.0000
11734 H  38.5595  16.4880  11.9436 H 1 RES   0.0000
11735 O  35.4748  15.8170  12.0629 O 1 RES   0.0000
11736 H  35.1071  15.0150  11.9803 H 1 RES   0.0000
11737 C  34.5430  28.1960  13.3120 C 1 RES   0.0000
11738 H  33.4430  28.1960  13.3120 H 1 RES   0.0000
11739 H  35.6430  28.1960  13.3120 H 1 RES   0.0000
11740 C  34.5430  28.1960  14.7120 C 1 RES   0.0000
11741 H  33.4430  28.1960  14.7120 H 1 RES   0.0000
11742 H  35.6430  28.1960  14.7120 H 1 RES   0.0000
11743 C  34.5430  28.1960  16.1120 C 1 RES   0.0000
11744 H  33.4430  28.1960  16.1120 H 1 RES   0.0000
11745 H  35.6430  28.1960  16.1120 H 1 RES   0.0000
11746 C  34.5430  28.1960  17.5120 C 1 RES   0.0000
11747 H  33.4430  28.1960  17.5120 H 1 RES   0.0000
11748 H  35.6430  28.1960  17.5120 H 1 RES   0.0000
11749 C  34.5430  28.1960  18.9120 C 1 RES   0.0000
11750 H  33.4430  28.1960  18.9120 H 1 RES   0.0000
11751 H  35.6430  28.1960  18.9120 H 1 RES   0.0000
11752 C  34.5430  28.1960  20.3120 C 1 RES   0.0000
11753 H  33.4430  28.1960  20.3120 H 1 RES   0.0000
11754 H  35.6430  28.1960  20.3120 H 1 RES   0.0000
11755 C  34.5430  28.1960  21.7120 C 1 RES   0.0000
11756 H  33.4430  28.1960  21.7120 H 1 RES   0.0000
11757 H  35.6430  28.1960  21.7120 H 1 RES   0.0000
11758 C  34.5430  28.1960  23.1120 C 1 RES   0.0000
11759 H  33.4430  28.1960  23.1120 H 1 RES   0.0000
11760 H  35.6430  28.1960  23.1120 H 1 RES   0.0000
11761 C  34.5430  28.1960  24.5120 C 1 RES   0.0000
11762 H  33.4430  28.1960  24.5120 H 1 RES   0.0000
11763 H  35.6430  28.1960  24.5120 H 1 RES   0.0000
11764 C  34.5430  28.1960  25.9120 C 1 RES   0.0000
11765 H  35.6130  28.1960  25.9120 H 1 RES   0.0000
11766 H  34.1860  27.5430  26.6810 H 1 RES   0.0000
11767 H  34.1860  29.1890  26.0930 H 1 RES   0.0000
11768 Si  34.5430  28.1960  11.9120 Si 1 RES   0.0000
11769 O  35.8503  28.1960  11.9120 O 1 RES   0.0000
11770 H  36.1775  28.8670  11.9436 H 1 RES   0.0000
11771 O  33.0928  28.1960  12.0629 O 1 RES   0.0000
11772 H  32.7251  27.3940  11.9803 H 1 RES   0.0000
11773 C  34.5430  44.7390  13.3120 C 1 RES   0.0000
11774 H  33.4430  44.7390  13.3120 H 1 RES   0.0000
11775 H  35.6430  44.7390  13.3120 H 1 RES   0.0000
11776 C  34.5430  44.7390  14.7120 C 1 RES   0.0000
11777 H  33.4430  44.7390  14.7120 H 1 RES   0.0000
11778 H  35.6430  44.7390  14.7120 H 1 RES   0.0000
11779 C  34.5430  44.7390  16.1120 C 1 RES   0.0000
11780 H  33.4430  44.7390  16.1120 H 1 RES   0.0000
11781 H  35.6430  44.7390  16.1120 H 1 RES   0.0000
11782 C  34.5430  44.7390  17.5120 C 1 RES   0.0000
11783 H  33.4430  44.7390  17.5120 H 1 RES   0.0000
11784 H  35.6430  44.7390  17.5120 H 1 RES   0.0000
11785 C  34.5430  44.7390  18.9120 C 1 RES   0.0000
11786 H  33.4430  44.7390  18.9120 H 1 RES   0.0000
11787 H  35.6430  44.7390  18.9120 H 1 RES   0.0000
11788 C  34.5430  44.7390  20.3120 C 1 RES   0.0000
11789 H  33.4430  44.7390  20.3120 H 1 RES   0.0000
11790 H  35.6430  44.7390  20.3120 H 1 RES   0.0000
11791 C  34.5430  44.7390  21.7120 C 1 RES   0.0000
11792 H  33.4430  44.7390  21.7120 H 1 RES   0.0000
11793 H  35.6430  44.7390  21.7120 H 1 RES   0.0000
11794 C  34.5430  44.7390  23.1120 C 1 RES   0.0000
11795 H  33.4430  44.7390  23.1120 H 1 RES   0.0000
11796 H  35.6430  44.7390  23.1120 H 1 RES   0.0000
11797 C  34.5430  44.7390  24.5120 C 1 RES   0.0000
11798 H  33.4430  44.7390  24.5120 H 1 RES   0.0000
11799 H  35.6430  44.7390  24.5120 H 1 RES   0.0000
11800 C  34.5430  44.7390  25.9120 C 1 RES   0.0000
11801 H  35.6130  44.7390  25.9120 H 1 RES   0.0000
11802 H  34.1860  44.0860  26.6810 H 1 RES   0.0000
11803 H  34.1860  45.7320  26.0930 H 1 RES   0.0000
11804 Si  34.5430  44.7390  11.9120 Si 1 RES   0.0000
11805 O  35.8503  44.7390  11.9120 O 1 RES   0.0000
11806 H  36.1775  45.4100  11.9436 H 1 RES   0.0000
11807 O  33.0928  44.7390  12.0629 O 1 RES   0.0000
11808 H  32.7251  43.9370  11.9803 H 1 RES   0.0000
11809 C  34.5430  61.2440  13.3120 C 1 RES   0.0000
11810 H  33.4430  61.2440  13.3120 H 1 RES   0.0000
11811 H  35.6430  61.2440  13.3120 H 1 RES   0.0000
11812 C  34.5430  61.2440  14.7120 C 1 RES   0.0000
11813 H  33.4430  61.2440  14.7120 H 1 RES   0.0000
11814 H  35.6430  61.2440  14.7120 H 1 RES   0.0000
11815 C  34.5430  61.2440  16.1120 C 1 RES   0.0000
11816 H  33.4430  61.2440  16.1120 H 1 RES   0.0000
11817 H  35.6430  61.2440  16.1120 H 1 RES   0.0000
11818 C  34.5430  61.2440  17.5120 C 1 RES   0.0000
11819 H  33.4430  61.2440  17.5120 H 1 RES   0.0000
11820 H  35.6430  61.2440  17.5120 H 1 RES   0.0000
11821 C  34.5430  61.2440  18.9120 C 1 RES   0.0000
11822 H  33.4430  61.2440  18.9120 H 1 RES   0.0000
11823 H  35.6430  61.2440  18.9120 H 1 RES   0.0000
11824 C  34.5430  61.2440  20.3120 C 1 RES   0.0000
11825 H  33.4430  61.2440  20.3120 H 1 RES   0.0000
11826 H  35.6430  61.2440  20.3120 H 1 RES   0.0000
11827 C  34.5430  61.2440  21.7120 C 1 RES   0.0000
11828 H  33.4430  61.2440  21.7120 H 1 RES   0.0000
11829 H  35.6430  61.2440  21.7120 H 1 RES   0.0000
11830 C  34.5430  61.2440  23.1120 C 1 RES   0.0000
11831 H  33.4430  61.2440  23.1120 H 1 RES   0.0000
11832 H  35.6430  61.2440  23.1120 H 1 RES   0.0000
11833 C  34.5430  61.2440  24.5120 C 1 RES   0.0000
11834 H  33.4430  61.2440  24.5120 H 1 RES   0.0000
11835 H  35.6430  61.2440  24.5120 H 1 RES   0.0000
11836 C  34.5430  61.2440  25.9120 C 1 RES   0.0000
11837 H  35.6130  61.2440  25.9120 H 1 RES   0.0000
11838 H  34.1860  60.5910  26.6810 H 1 RES   0.0000
11839 H  34.1860  62.2370  26.0930 H 1 RES   0.0000
11840 Si  34.5430  61.2440  11.9120 Si 1 RES   0.0000
11841 O  35.8503  61.2440  11.9120 O 1 RES   0.0000
11842 H  36.1775  61.9150  11.9436 H 1 RES   0.0000
11843 O  33.0928  61.2440  12.0629 O 1 RES   0.0000
11844 H  32.7251  60.4420  11.9803 H 1 RES   0.0000
11845 C  34.5430  77.7490  13.3120 C 1 RES   0.0000
11846 H  33.4430  77.7490  13.3120 H 1 RES   0.0000
11847 H  35.6430  77.7490  13.3120 H 1 RES   0.0000
11848 C  34.5430  77.7490  14.7120 C 1 RES   0.0000
11849 H  33.4430  77.7490  14.7120 H 1 RES   0.0000
11850 H  35.6430  77.7490  14.7120 H 1 RES   0.0000
11851 C  34.5430  77.7490  16.1120 C 1 RES   0.0000
11852 H  33.4430  77.7490  16.1120 H 1 RES   0.0000
11853 H  35.6430  77.7490  16.1120 H 1 RES   0.0000
11854 C  34.5430  77.7490  17.5120 C 1 RES   0.0000
11855 H  33.4430  77.7490  17.5120 H 1 RES   0.0000
11856 H  35.6430  77.7490  17.5120 H 1 RES   0.0000
11857 C  34.5430  77.7490  18.9120 C 1 RES   0.0000
11858 H  33.4430  77.7490  18.9120 H 1 RES   0.0000
11859 H  35.6430  77.7490  18.9120 H 1 RES   0.0000
11860 C  34.5430  77.7490  20.3120 C 1 RES   0.0000
11861 H  33.4430  77.7490  20.3120 H 1 RES   0.0000
11862 H  35.6430  77.7490  20.3120 H 1 RES   0.0000
11863 C  34.5430  77.7490  21.7120 C 1 RES   0.0000
11864 H  33.4430  77.7490  21.7120 H 1 RES   0.0000
11865 H  35.6430  77.7490  21.7120 H 1 RES   0.0000
11866 C  34.5430  77.7490  23.1120 C 1 RES   0.0000
11867 H  33.4430  77.7490  23.1120 H 1 RES   0.0000
11868 H  35.6430  77.7490  23.1120 H 1 RES   0.0000
11869 C  34.5430  77.7490  24.5120 C 1 RES   0.0000
11870 H  33.4430  77.7490  24.5120 H 1 RES   0.0000
11871 H  35.6430  77.7490  24.5120 H 1 RES   0.0000
11872 C  34.5430  77.7490  25.9120 C 1 RES   0.0000
11873 H  35.6130  77.7490  25.9120 H 1 RES   0.0000
11874 H  34.1860  77.0960  26.6810 H 1 RES   0.0000
11875 H  34.1860  78.7420  26.0930 H 1 RES   0.0000
11876 Si  34.5430  77.7490  11.9120 Si 1 RES   0.0000
11877 O  35.8503  77.7490  11.9120 O 1 RES   0.0000
11878 H  36.1775  78.4200  11.9436 H 1 RES   0.0000
11879 O  33.0928  77.7490  12.0629 O 1 RES   0.0000
11880 H  32.7251  76.9470  11.9803 H 1 RES   0.0000
11881 C  36.9250  90.1650  13.3120 C 1 RES   0.0000
11882 H  35.8250  90.1650  13.3120 H 1 RES   0.0000
11883 H  38.0250  90.1650  13.3120 H 1 RES   0.0000
11884 C  36.9250  90.1650  14.7120 C 1 RES   0.0000
11885 H  35.8250  90.1650  14.7120 H 1 RES   0.0000
11886 H  38.0250  90.1650  14.7120 H 1 RES   0.0000
11887 C  36.9250  90.1650  16.1120 C 1 RES   0.0000
11888 H  35.8250  90.1650  16.1120 H 1 RES   0.0000
11889 H  38.0250  90.1650  16.1120 H 1 RES   0.0000
11890 C  36.9250  90.1650  17.5120 C 1 RES   0.0000
11891 H  35.8250  90.1650  17.5120 H 1 RES   0.0000
11892 H  38.0250  90.1650  17.5120 H 1 RES   0.0000
11893 C  36.9250  90.1650  18.9120 C 1 RES   0.0000
11894 H  35.8250  90.1650  18.9120 H 1 RES   0.0000
11895 H  38.0250  90.1650  18.9120 H 1 RES   0.0000
11896 C  36.9250  90.1650  20.3120 C 1 RES   0.0000
11897 H  35.8250  90.1650  20.3120 H 1 RES   0.0000
11898 H  38.0250  90.1650  20.3120 H 1 RES   0.0000
11899 C  36.9250  90.1650  21.7120 C 1 RES   0.0000
11900 H  35.8250  90.1650  21.7120 H 1 RES   0.0000
11901 H  38.0250  90.1650  21.7120 H 1 RES   0.0000
11902 C  36.9250  90.1650  23.1120 C 1 RES   0.0000
11903 H  35.8250  90.1650  23.1120 H 1 RES   0.0000
11904 H  38.0250  90.1650  23.1120 H 1 RES   0.0000
11905 C  36.9250  90.1650  24.5120 C 1 RES   0.0000
11906 H  35.8250  90.1650  24.5120 H 1 RES   0.0000
11907 H  38.0250  90.1650  24.5120 H 1 RES   0.0000
11908 C  36.9250  90.1650  25.9120 C 1 RES   0.0000
11909 H  37.9950  90.1650  25.9120 H 1 RES   0.0000
11910 H  36.5680  89.5120  26.6810 H 1 RES   0.0000
11911 H  36.5680  91.1580  26.0930 H 1 RES   0.0000
11912 Si  36.9250  90.1650  11.9120 Si 1 RES   0.0000
11913 O  38.2323  90.1650  11.9120 O 1 RES   0.0000
11914 H  38.5595  90.8360  11.9436 H 1 RES   0.0000
11915 O  35.4748  90.1650  12.0629 O 1 RES   0.0000
11916 H  35.1071  89.3630  11.9803 H 1 RES   0.0000
11917 C  36.9250 106.6700  13.3120 C 1 RES   0.0000
11918 H  35.8250 106.6700  13.3120 H 1 RES   0.0000
11919 H  38.0250 106.6700  13.3120 H 1 RES   0.0000
11920 C  36.9250 106.6700  14.7120 C 1 RES   0.0000
11921 H  35.8250 106.6700  14.7120 H 1 RES   0.0000
11922 H  38.0250 106.6700  14.7120 H 1 RES   0.0000
11923 C  36.9250 106.6700  16.1120 C 1 RES   0.0000
11924 H  35.8250 106.6700  16.1120 H 1 RES   0.0000
11925 H  38.0250 106.6700  16.1120 H 1 RES   0.0000
11926 C  36.9250 106.6700  17.5120 C 1 RES   0.0000
11927 H  35.8250 106.6700  17.5120 H 1 RES   0.0000
11928 H  38.0250 106.6700  17.5120 H 1 RES   0.0000
11929 C  36.9250 106.6700  18.9120 C 1 RES   0.0000
11930 H  35.8250 106.6700  18.9120 H 1 RES   0.0000
11931 H  38.0250 106.6700  18.9120 H 1 RES   0.0000
11932 C  36.9250 106.6700  20.3120 C 1 RES   0.0000
11933 H  35.8250 106.6700  20.3120 H 1 RES   0.0000
11934 H  38.0250 106.6700  20.3120 H 1 RES   0.0000
11935 C  36.9250 106.6700  21.7120 C 1 RES   0.0000
11936 H  35.8250 106.6700  21.7120 H 1 RES   0.0000
11937 H  38.0250 106.6700  21.7120 H 1 RES   0.0000
11938 C  36.9250 106.6700  23.1120 C 1 RES   0.0000
11939 H  35.8250 106.6700  23.1120 H 1 RES   0.0000
11940 H  38.0250 106.6700  23.1120 H 1 RES   0.0000
11941 C  36.9250 106.6700  24.5120 C 1 RES   0.0000
11942 H  35.8250 106.6700  24.5120 H 1 RES   0.0000
11943 H  38.0250 106.6700  24.5120 H 1 RES   0.0000
11944 C  36.9250 106.6700  25.9120 C 1 RES   0.0000
11945 H  37.9950 106.6700  25.9120 H 1 RES   0.0000
11946 H  36.5680 106.0170  26.6810 H 1 RES   0.0000
11947 H  36.5680 107.6630  26.0930 H 1 RES   0.0000
11948 Si  36.9250 106.6700  11.9120 Si 1 RES   0.0000
11949 O  38.2323 106.6700  11.9120 O 1 RES   0.0000
11950 H  38.5595 107.3410  11.9436 H 1 RES   0.0000
11951 O  35.4748 106.6700  12.0629 O 1 RES   0.0000
11952 H  35.1071 105.8680  11.9803 H 1 RES   0.0000
11953 C  46.4550  -0.7250  13.3120 C 1 RES   0.0000
11954 H  45.3550  -0.7250  13.3120 H 1 RES   0.0000
11955 H  47.5550  -0.7250  13.3120 H 1 RES   0.0000
11956 C  46.4550  -0.7250  14.7120 C 1 RES   0.0000
11957 H  45.3550  -0.7250  14.7120 H 1 RES   0.0000
11958 H  47.5550  -0.7250  14.7120 H 1 RES   0.0000
11959 C  46.4550  -0.7250  16.1120 C 1 RES   0.0000
11960 H  45.3550  -0.7250  16.1120 H 1 RES   0.0000
11961 H  47.5550  -0.7250  16.1120 H 1 RES   0.0000
11962 C  46.4550  -0.7250  17.5120 C 1 RES   0.0000
11963 H  45.3550  -0.7250  17.5120 H 1 RES   0.0000
11964 H  47.5550  -0.7250  17.5120 H 1 RES   0.0000
11965 C  46.4550  -0.7250  18.9120 C 1 RES   0.0000
11966 H  45.3550  -0.7250  18.9120 H 1 RES   0.0000
11967 H  47.5550  -0.7250  18.9120 H 1 RES   0.0000
11968 C  46.4550  -0.7250  20.3120 C 1 RES   0.0000
11969 H  45.3550  -0.7250  20.3120 H 1 RES   0.0000
11970 H  47.5550  -0.7250  20.3120 H 1 RES   0.0000
11971 C  46.4550  -0.7250  21.7120 C 1 RES   0.0000
11972 H  45.3550  -0.7250  21.7120 H 1 RES   0.0000
11973 H  47.5550  -0.7250  21.7120 H 1 RES   0.0000
11974 C  46.4550  -0.7250  23.1120 C 1 RES   0.0000
11975 H  45.3550  -0.7250  23.1120 H 1 RES   0.0000
11976 H  47.5550  -0.7250  23.1120 H 1 RES   0.0000
11977 C  46.4550  -0.7250  24.5120 C 1 RES   0.0000
11978 H  45.3550  -0.7250  24.5120 H 1 RES   0.0000
11979 H  47.5550  -0.7250  24.5120 H 1 RES   0.0000
11980 C  46.4550  -0.7250  25.9120 C 1 RES   0.0000
11981 H  47.5250  -0.7250  25.9120 H 1 RES   0.0000
11982 H  46.0980  -1.3780  26.6810 H 1 RES   0.0000
11983 H  46.0980   0.2680  26.0930 H 1 RES   0.0000
11984 Si  46.4550  -0.7250  11.9120 Si 1 RES   0.0000
11985 O  47.7623  -0.7250  11.9120 O 1 RES   0.0000
11986 H  48.0895  -0.0540  11.9436 H 1 RES   0.0000
11987 O  45.0048  -0.7250  12.0629 O 1 RES   0.0000
11988 H  44.6371  -1.5270  11.9803 H 1 RES   0.0000
11989 C  46.4550  15.8170  13.3120 C 1 RES   0.0000
11990 H  45.3550  15.8170  13.3120 H 1 RES   0.0000
11991 H  47.5550  15.8170  13.3120 H 1 RES   0.0000
11992 C  46.4550  15.8170  14.7120 C 1 RES   0.0000
11993 H  45.3550  15.8170  14.7120 H 1 RES   0.0000
11994 H  47.5550  15.8170  14.7120 H 1 RES   0.0000
11995 C  46.4550  15.8170  16.1120 C 1 RES   0.0000
11996 H  45.3550  15.8170  16.1120 H 1 RES   0.0000
11997 H  47.5550  15.8170  16.1120 H 1 RES   0.0000
11998 C  46.4550  15.8170  17.5120 C 1 RES   0.0000
11999 H  45.3550  15.8170  17.5120 H 1 RES   0.0000
12000 H  47.5550  15.8170  17.5120 H 1 RES   0.0000
12001 C  46.4550  15.8170  18.9120 C 1 RES   0.0000
12002 H  45.3550  15.8170  18.9120 H 1 RES   0.0000
12003 H  47.5550  15.8170  18.9120 H 1 RES   0.0000
12004 C  46.4550  15.8170  20.3120 C 1 RES   0.0000
12005 H  45.3550  15.8170  20.3120 H 1 RES   0.0000
12006 H  47.5550  15.8170  20.3120 H 1 RES   0.0000
12007 C  46.4550  15.8170  21.7120 C 1 RES   0.0000
12008 H  45.3550  15.8170  21.7120 H 1 RES   0.0000
12009 H  47.5550  15.8170  21.7120 H 1 RES   0.0000
12010 C  46.4550  15.8170  23.1120 C 1 RES   0.0000
12011 H  45.3550  15.8170  23.1120 H 1 RES   0.0000
12012 H  47.5550  15.8170  23.1120 H 1 RES   0.0000
12013 C  46.4550  15.8170  24.5120 C 1 RES   0.0000
12014 H  45.3550  15.8170  24.5120 H 1 RES   0.0000
12015 H  47.5550  15.8170  24.5120 H 1 RES   0.0000
12016 C  46.4550  15.8170  25.9120 C 1 RES   0.0000
12017 H  47.5250  15.8170  25.9120 H 1 RES   0.0000
12018 H  46.0980  15.1640  26.6810 H 1 RES   0.0000
12019 H  46.0980  16.8100  26.0930 H 1 RES   0.0000
12020 Si  46.4550  15.8170  11.9120 Si 1 RES   0.0000
12021 O  47.7623  15.8170  11.9120 O 1 RES   0.0000
12022 H  48.0895  16.4880  11.9436 H 1 RES   0.0000
12023 O  45.0048  15.8170  12.0629 O 1 RES   0.0000
12024 H  44.6371  15.0150  11.9803 H 1 RES   0.0000
12025 C  46.4550  32.3220  13.3120 C 1 RES   0.0000
12026 H  45.3550  32.3220  13.3120 H 1 RES   0.0000
12027 H  47.5550  32.3220  13.3120 H 1 RES   0.0000
12028 C  46.4550  32.3220  14.7120 C 1 RES   0.0000
12029 H  45.3550  32.3220  14.7120 H 1 RES   0.0000
12030 H  47.5550  32.3220  14.7120 H 1 RES   0.0000
12031 C  46.4550  32.3220  16.1120 C 1 RES   0.0000
12032 H  45.3550  32.3220  16.1120 H 1 RES   0.0000
12033 H  47.5550  32.3220  16.1120 H 1 RES   0.0000
12034 C  46.4550  32.3220  17.5120 C 1 RES   0.0000
12035 H  45.3550  32.3220  17.5120 H 1 RES   0.0000
12036 H  47.5550  32.3220  17.5120 H 1 RES   0.0000
12037 C  46.4550  32.3220  18.9120 C 1 RES   0.0000
12038 H  45.3550  32.3220  18.9120 H 1 RES   0.0000
12039 H  47.5550  32.3220  18.9120 H 1 RES   0.0000
12040 C  46.4550  32.3220  20.3120 C 1 RES   0.0000
12041 H  45.3550  32.3220  20.3120 H 1 RES   0.0000
12042 H  47.5550  32.3220  20.3120 H 1 RES   0.0000
12043 C  46.4550  32.3220  21.7120 C 1 RES   0.0000
12044 H  45.3550  32.3220  21.7120 H 1 RES   0.0000
12045 H  47.5550  32.3220  21.7120 H 1 RES   0.0000
12046 C  46.4550  32.3220  23.1120 C 1 RES   0.0000
12047 H  45.3550  32.3220  23.1120 H 1 RES   0.0000
12048 H  47.5550  32.3220  23.1120 H 1 RES   0.0000
12049 C  46.4550  32.3220  24.5120 C 1 RES   0.0000
12050 H  45.3550  32.3220  24.5120 H 1 RES   0.0000
12051 H  47.5550  32.3220  24.5120 H 1 RES   0.0000
12052 C  46.4550  32.3220  25.9120 C 1 RES   0.0000
12053 H  47.5250  32.3220  25.9120 H 1 RES   0.0000
12054 H  46.0980  31.6690  26.6810 H 1 RES   0.0000
12055 H  46.0980  33.3150  26.0930 H 1 RES   0.0000
12056 Si  46.4550  32.3220  11.9120 Si 1 RES   0.0000
12057 O  47.7623  32.3220  11.9120 O 1 RES   0.0000
12058 H  48.0895  32.9930  11.9436 H 1 RES   0.0000
12059 O  45.0048  32.3220  12.0629 O 1 RES   0.0000
12060 H  44.6371  31.5200  11.9803 H 1 RES   0.0000
12061 C  48.8800  44.7390  13.3120 C 1 RES   0.0000
12062 H  47.7800  44.7390  13.3120 H 1 RES   0.0000
12063 H  49.9800  44.7390  13.3120 H 1 RES   0.0000
12064 C  48.8800  44.7390  14.7120 C 1 RES   0.0000
12065 H  47.7800  44.7390  14.7120 H 1 RES   0.0000
12066 H  49.9800  44.7390  14.7120 H 1 RES   0.0000
12067 C  48.8800  44.7390  16.1120 C 1 RES   0.0000
12068 H  47.7800  44.7390  16.1120 H 1 RES   0.0000
12069 H  49.9800  44.7390  16.1120 H 1 RES   0.0000
12070 C  48.8800  44.7390  17.5120 C 1 RES   0.0000
12071 H  47.7800  44.7390  17.5120 H 1 RES   0.0000
12072 H  49.9800  44.7390  17.5120 H 1 RES   0.0000
12073 C  48.8800  44.7390  18.9120 C 1 RES   0.0000
12074 H  47.7800  44.7390  18.9120 H 1 RES   0.0000
12075 H  49.9800  44.7390  18.9120 H 1 RES   0.0000
12076 C  48.8800  44.7390  20.3120 C 1 RES   0.0000
12077 H  47.7800  44.7390  20.3120 H 1 RES   0.0000
12078 H  49.9800  44.7390  20.3120 H 1 RES   0.0000
12079 C  48.8800  44.7390  21.7120 C 1 RES   0.0000
12080 H  47.7800  44.7390  21.7120 H 1 RES   0.0000
12081 H  49.9800  44.7390  21.7120 H 1 RES   0.0000
12082 C  48.8800  44.7390  23.1120 C 1 RES   0.0000
12083 H  47.7800  44.7390  23.1120 H 1 RES   0.0000
12084 H  49.9800  44.7390  23.1120 H 1 RES   0.0000
12085 C  48.8800  44.7390  24.5120 C 1 RES   0.0000
12086 H  47.7800  44.7390  24.5120 H 1 RES   0.0000
12087 H  49.9800  44.7390  24.5120 H 1 RES   0.0000
12088 C  48.8800  44.7390  25.9120 C 1 RES   0.0000
12089 H  49.9500  44.7390  25.9120 H 1 RES   0.0000
12090 H  48.5230  44.0860  26.6810 H 1 RES   0.0000
12091 H  48.5230  45.7320  26.0930 H 1 RES   0.0000
12092 Si  48.8800  44.7390  11.9120 Si 1 RES   0.0000
12093 O  50.1873  44.7390  11.9120 O 1 RES   0.0000
12094 H  50.5145  45.4100  11.9436 H 1 RES   0.0000
12095 O  47.4298  44.7390  12.0629 O 1 RES   0.0000
12096 H  47.0620  43.9370  11.9803 H 1 RES   0.0000
12097 C  48.8800  61.2440  13.3120 C 1 RES   0.0000
12098 H  47.7800  61.2440  13.3120 H 1 RES   0.0000
12099 H  49.9800  61.2440  13.3120 H 1 RES   0.0000
12100 C  48.8800  61.2440  14.7120 C 1 RES   0.0000
12101 H  47.7800  61.2440  14.7120 H 1 RES   0.0000
12102 H  49.9800  61.2440  14.7120 H 1 RES   0.0000
12103 C  48.8800  61.2440  16.1120 C 1 RES   0.0000
12104 H  47.7800  61.2440  16.1120 H 1 RES   0.0000
12105 H  49.9800  61.2440  16.1120 H 1 RES   0.0000
12106 C  48.8800  61.2440  17.5120 C 1 RES   0.0000
12107 H  47.7800  61.2440  17.5120 H 1 RES   0.0000
12108 H  49.9800  61.2440  17.5120 H 1 RES   0.0000
12109 C  48.8800  61.2440  18.9120 C 1 RES   0.0000
12110 H  47.7800  61.2440  18.9120 H 1 RES   0.0000
12111 H  49.9800  61.2440  18.9120 H 1 RES   0.0000
12112 C  48.8800  61.2440  20.3120 C 1 RES   0.0000
12113 H  47.7800  61.2440  20.3120 H 1 RES   0.0000
12114 H  49.9800  61.2440  20.3120 H 1 RES   0.0000
12115 C  48.8800  61.2440  21.7120 C 1 RES   0.0000
12116 H  47.7800  61.2440  21.7120 H 1 RES   0.0000
12117 H  49.9800  61.2440  21.7120 H 1 RES   0.0000
12118 C  48.8800  61.2440  23.1120 C 1 RES   0.0000
12119 H  47.7800  61.2440  23.1120 H 1 RES   0.0000
12120 H  49.9800  61.2440  23.1120 H 1 RES   0.0000
12121 C  48.8800  61.2440  24.5120 C 1 RES   0.0000
12122 H  47.7800  61.2440  24.5120 H 1 RES   0.0000
12123 H  49.9800  61.2440  24.5120 H 1 RES   0.0000
12124 C  48.8800  61.2440  25.9120 C 1 RES   0.0000
12125 H  49.9500  61.2440  25.9120 H 1 RES   0.0000
12126 H  48.5230  60.5910  26.6810 H 1 RES   0.0000
12127 H  48.5230  62.2370  26.0930 H 1 RES   0.0000
12128 Si  48.8800  61.2440  11.9120 Si 1 RES   0.0000
12129 O  50.1873  61.2440  11.9120 O 1 RES   0.0000
12130 H  50.5145  61.9150  11.9436 H 1 RES   0.0000
12131 O  47.4298  61.2440  12.0629 O 1 RES   0.0000
12132 H  47.0620  60.4420  11.9803 H 1 RES   0.0000
12133 C  46.4550  73.6220  13.3120 C 1 RES   0.0000
12134 H  45.3550  73.6220  13.3120 H 1 RES   0.0000
12135 H  47.5550  73.6220  13.3120 H 1 RES   0.0000
12136 C  46.4550  73.6220  14.7120 C 1 RES   0.0000
12137 H  45.3550  73.6220  14.7120 H 1 RES   0.0000
12138 H  47.5550  73.6220  14.7120 H 1 RES   0.0000
12139 C  46.4550  73.6220  16.1120 C 1 RES   0.0000
12140 H  45.3550  73.6220  16.1120 H 1 RES   0.0000
12141 H  47.5550  73.6220  16.1120 H 1 RES   0.0000
12142 C  46.4550  73.6220  17.5120 C 1 RES   0.0000
12143 H  45.3550  73.6220  17.5120 H 1 RES   0.0000
12144 H  47.5550  73.6220  17.5120 H 1 RES   0.0000
12145 C  46.4550  73.6220  18.9120 C 1 RES   0.0000
12146 H  45.3550  73.6220  18.9120 H 1 RES   0.0000
12147 H  47.5550  73.6220  18.9120 H 1 RES   0.0000
12148 C  46.4550  73.6220  20.3120 C 1 RES   0.0000
12149 H  45.3550  73.6220  20.3120 H 1 RES   0.0000
12150 H  47.5550  73.6220  20.3120 H 1 RES   0.0000
12151 C  46.4550  73.6220  21.7120 C 1 RES   0.0000
12152 H  45.3550  73.6220  21.7120 H 1 RES   0.0000
12153 H  47.5550  73.6220  21.7120 H 1 RES   0.0000
12154 C  46.4550  73.6220  23.1120 C 1 RES   0.0000
12155 H  45.3550  73.6220  23.1120 H 1 RES   0.0000
12156 H  47.5550  73.6220  23.1120 H 1 RES   0.0000
12157 C  46.4550  73.6220  24.5120 C 1 RES   0.0000
12158 H  45.3550  73.6220  24.5120 H 1 RES   0.0000
12159 H  47.5550  73.6220  24.5120 H 1 RES   0.0000
12160 C  46.4550  73.6220  25.9120 C 1 RES   0.0000
12161 H  47.5250  73.6220  25.9120 H 1 RES   0.0000
12162 H  46.0980  72.9690  26.6810 H 1 RES   0.0000
12163 H  46.0980  74.6150  26.0930 H 1 RES   0.0000
12164 Si  46.4550  73.6220  11.9120 Si 1 RES   0.0000
12165 O  47.7623  73.6220  11.9120 O 1 RES   0.0000
12166 H  48.0895  74.2930  11.9436 H 1 RES   0.0000
12167 O  45.0048  73.6220  12.0629 O 1 RES   0.0000
12168 H  44.6371  72.8200  11.9803 H 1 RES   0.0000
12169 C  46.4550  90.1650  13.3120 C 1 RES   0.0000
12170 H  45.3550  90.1650  13.3120 H 1 RES   0.0000
12171 H  47.5550  90.1650  13.3120 H 1 RES   0.0000
12172 C  46.4550  90.1650  14.7120 C 1 RES   0.0000
12173 H  45.3550  90.1650  14.7120 H 1 RES   0.0000
12174 H  47.5550  90.1650  14.7120 H 1 RES   0.0000
12175 C  46.4550  90.1650  16.1120 C 1 RES   0.0000
12176 H  45.3550  90.1650  16.1120 H 1 RES   0.0000
12177 H  47.5550  90.1650  16.1120 H 1 RES   0.0000
12178 C  46.4550  90.1650  17.5120 C 1 RES   0.0000
12179 H  45.3550  90.1650  17.5120 H 1 RES   0.0000
12180 H  47.5550  90.1650  17.5120 H 1 RES   0.0000
12181 C  46.4550  90.1650  18.9120 C 1 RES   0.0000
12182 H  45.3550  90.1650  18.9120 H 1 RES   0.0000
12183 H  47.5550  90.1650  18.9120 H 1 RES   0.0000
12184 C  46.4550  90.1650  20.3120 C 1 RES   0.0000
12185 H  45.3550  90.1650  20.3120 H 1 RES   0.0000
12186 H  47.5550  90.1650  20.3120 H 1 RES   0.0000
12187 C  46.4550  90.1650  21.7120 C 1 RES   0.0000
12188 H  45.3550  90.1650  21.7120 H 1 RES   0.0000
12189 H  47.5550  90.1650  21.7120 H 1 RES   0.0000
12190 C  46.4550  90.1650  23.1120 C 1 RES   0.0000
12191 H  45.3550  90.1650  23.1120 H 1 RES   0.0000
12192 H  47.5550  90.1650  23.1120 H 1 RES   0.0000
12193 C  46.4550  90.1650  24.5120 C 1 RES   0.0000
12194 H  45.3550  90.1650  24.5120 H 1 RES   0.0000
12195 H  47.5550  90.1650  24.5120 H 1 RES   0.0000
12196 C  46.4550  90.1650  25.9120 C 1 RES   0.0000
12197 H  47.5250  90.1650  25.9120 H 1 RES   0.0000
12198 H  46.0980  89.5120  26.6810 H 1 RES   0.0000
12199 H  46.0980  91.1580  26.0930 H 1 RES   0.0000
12200 Si  46.4550  90.1650  11.9120 Si 1 RES   0.0000
12201 O  47.7623  90.1650  11.9120 O 1 RES   0.0000
12202 H  48.0895  90.8360  11.9436 H 1 RES   0.0000
12203 O  45.0048  90.1650  12.0629 O 1 RES   0.0000
12204 H  44.6371  89.3630  11.9803 H 1 RES   0.0000
12205 C  46.4550 106.6700  13.3120 C 1 RES   0.0000
12206 H  45.3550 106.6700  13.3120 H 1 RES   0.0000
12207 H  47.5550 106.6700  13.3120 H 1 RES   0.0000
12208 C  46.4550 106.6700  14.7120 C 1 RES   0.0000
12209 H  45.3550 106.6700  14.7120 H 1 RES   0.0000
12210 H  47.5550 106.6700  14.7120 H 1 RES   0.0000
12211 C  46.4550 106.6700  16.1120 C 1 RES   0.0000
12212 H  45.3550 106.6700  16.1120 H 1 RES   0.0000
12213 H  47.5550 106.6700  16.1120 H 1 RES   0.0000
12214 C  46.4550 106.6700  17.5120 C 1 RES   0.0000
12215 H  45.3550 106.6700  17.5120 H 1 RES   0.0000
12216 H  47.5550 106.6700  17.5120 H 1 RES   0.0000
12217 C  46.4550 106.6700  18.9120 C 1 RES   0.0000
12218 H  45.3550 106.6700  18.9120 H 1 RES   0.0000
12219 H  47.5550 106.6700  18.9120 H 1 RES   0.0000
12220 C  46.4550 106.6700  20.3120 C 1 RES   0.0000
12221 H  45.3550 106.6700  20.3120 H 1 RES   0.0000
12222 H  47.5550 106.6700  20.3120 H 1 RES   0.0000
12223 C  46.4550 106.6700  21.7120 C 1 RES   0.0000
12224 H  45.3550 106.6700  21.7120 H 1 RES   0.0000
12225 H  47.5550 106.6700  21.7120 H 1 RES   0.0000
12226 C  46.4550 106.6700  23.1120 C 1 RES   0.0000
12227 H  45.3550 106.6700  23.1120 H 1 RES   0.0000
12228 H  47.5550 106.6700  23.1120 H 1 RES   0.0000
12229 C  46.4550 106.6700  24.5120 C 1 RES   0.0000
12230 H  45.3550 106.6700  24.5120 H 1 RES   0.0000
12231 H  47.5550 106.6700  24.5120 H 1 RES   0.0000
12232 C  46.4550 106.6700  25.9120 C 1 RES   0.0000
12233 H  47.5250 106.6700  25.9120 H 1 RES   0.0000
12234 H  46.0980 106.0170  26.6810 H 1 RES   0.0000
12235 H  46.0980 107.6630  26.0930 H 1 RES   0.0000
12236 Si  46.4550 106.6700  11.9120 Si 1 RES   0.0000
12237 O  47.7623 106.6700  11.9120 O 1 RES   0.0000
12238 H  48.0895 107.3410  11.9436 H 1 RES   0.0000
12239 O  45.0048 106.6700  12.0629 O 1 RES   0.0000
12240 H  44.6371 105.8680  11.9803 H 1 RES   0.0000
12241 C  60.7920  -0.7250  13.3120 C 1 RES   0.0000
12242 H  59.6920  -0.7250  13.3120 H 1 RES   0.0000
12243 H  61.8920  -0.7250  13.3120 H 1 RES   0.0000
12244 C  60.7920  -0.7250  14.7120 C 1 RES   0.0000
12245 H  59.6920  -0.7250  14.7120 H 1 RES   0.0000
12246 H  61.8920  -0.7250  14.7120 H 1 RES   0.0000
12247 C  60.7920  -0.7250  16.1120 C 1 RES   0.0000
12248 H  59.6920  -0.7250  16.1120 H 1 RES   0.0000
12249 H  61.8920  -0.7250  16.1120 H 1 RES   0.0000
12250 C  60.7920  -0.7250  17.5120 C 1 RES   0.0000
12251 H  59.6920  -0.7250  17.5120 H 1 RES   0.0000
12252 H  61.8920  -0.7250  17.5120 H 1 RES   0.0000
12253 C  60.7920  -0.7250  18.9120 C 1 RES   0.0000
12254 H  59.6920  -0.7250  18.9120 H 1 RES   0.0000
12255 H  61.8920  -0.7250  18.9120 H 1 RES   0.0000
12256 C  60.7920  -0.7250  20.3120 C 1 RES   0.0000
12257 H  59.6920  -0.7250  20.3120 H 1 RES   0.0000
12258 H  61.8920  -0.7250  20.3120 H 1 RES   0.0000
12259 C  60.7920  -0.7250  21.7120 C 1 RES   0.0000
12260 H  59.6920  -0.7250  21.7120 H 1 RES   0.0000
12261 H  61.8920  -0.7250  21.7120 H 1 RES   0.0000
12262 C  60.7920  -0.7250  23.1120 C 1 RES   0.0000
12263 H  59.6920  -0.7250  23.1120 H 1 RES   0.0000
12264 H  61.8920  -0.7250  23.1120 H 1 RES   0.0000
12265 C  60.7920  -0.7250  24.5120 C 1 RES   0.0000
12266 H  59.6920  -0.7250  24.5120 H 1 RES   0.0000
12267 H  61.8920  -0.7250  24.5120 H 1 RES   0.0000
12268 C  60.7920  -0.7250  25.9120 C 1 RES   0.0000
12269 H  61.8620  -0.7250  25.9120 H 1 RES   0.0000
12270 H  60.4350  -1.3780  26.6810 H 1 RES   0.0000
12271 H  60.4350   0.2680  26.0930 H 1 RES   0.0000
12272 Si  60.7920  -0.7250  11.9120 Si 1 RES   0.0000
12273 O  62.0993  -0.7250  11.9120 O 1 RES   0.0000
12274 H  62.4265  -0.0540  11.9436 H 1 RES   0.0000
12275 O  59.3418  -0.7250  12.0629 O 1 RES   0.0000
12276 H  58.9741  -1.5270  11.9803 H 1 RES   0.0000
12277 C  60.7920  15.8170  13.3120 C 1 RES   0.0000
12278 H  59.6920  15.8170  13.3120 H 1 RES   0.0000
12279 H  61.8920  15.8170  13.3120 H 1 RES   0.0000
12280 C  60.7920  15.8170  14.7120 C 1 RES   0.0000
12281 H  59.6920  15.8170  14.7120 H 1 RES   0.0000
12282 H  61.8920  15.8170  14.7120 H 1 RES   0.0000
12283 C  60.7920  15.8170  16.1120 C 1 RES   0.0000
12284 H  59.6920  15.8170  16.1120 H 1 RES   0.0000
12285 H  61.8920  15.8170  16.1120 H 1 RES   0.0000
12286 C  60.7920  15.8170  17.5120 C 1 RES   0.0000
12287 H  59.6920  15.8170  17.5120 H 1 RES   0.0000
12288 H  61.8920  15.8170  17.5120 H 1 RES   0.0000
12289 C  60.7920  15.8170  18.9120 C 1 RES   0.0000
12290 H  59.6920  15.8170  18.9120 H 1 RES   0.0000
12291 H  61.8920  15.8170  18.9120 H 1 RES   0.0000
12292 C  60.7920  15.8170  20.3120 C 1 RES   0.0000
12293 H  59.6920  15.8170  20.3120 H 1 RES   0.0000
12294 H  61.8920  15.8170  20.3120 H 1 RES   0.0000
12295 C  60.7920  15.8170  21.7120 C 1 RES   0.0000
12296 H  59.6920  15.8170  21.7120 H 1 RES   0.0000
12297 H  61.8920  15.8170  21.7120 H 1 RES   0.0000
12298 C  60.7920  15.8170  23.1120 C 1 RES   0.0000
12299 H  59.6920  15.8170  23.1120 H 1 RES   0.0000
12300 H  61.8920  15.8170  23.1120 H 1 RES   0.0000
12301 C  60.7920  15.8170  24.5120 C 1 RES   0.0000
12302 H  59.6920  15.8170  24.5120 H 1 RES   0.0000
12303 H  61.8920  15.8170  24.5120 H 1 RES   0.0000
12304 C  60.7920  15.8170  25.9120 C 1 RES   0.0000
12305 H  61.8620  15.8170  25.9120 H 1 RES   0.0000
12306 H  60.4350  15.1640  26.6810 H 1 RES   0.0000
12307 H  60.4350  16.8100  26.0930 H 1 RES   0.0000
12308 Si  60.7920  15.8170  11.9120 Si 1 RES   0.0000
12309 O  62.0993  15.8170  11.9120 O 1 RES   0.0000
12310 H  62.4265  16.4880  11.9436 H 1 RES   0.0000
12311 O  59.3418  15.8170  12.0629 O 1 RES   0.0000
12312 H  58.9741  15.0150  11.9803 H 1 RES   0.0000
12313 C  58.4090  28.1960  13.3120 C 1 RES   0.0000
12314 H  57.3090  28.1960  13.3120 H 1 RES   0.0000
12315 H  59.5090  28.1960  13.3120 H 1 RES   0.0000
12316 C  58.4090  28.1960  14.7120 C 1 RES   0.0000
12317 H  57.3090  28.1960  14.7120 H 1 RES   0.0000
12318 H  59.5090  28.1960  14.7120 H 1 RES   0.0000
12319 C  58.4090  28.1960  16.1120 C 1 RES   0.0000
12320 H  57.3090  28.1960  16.1120 H 1 RES   0.0000
12321 H  59.5090  28.1960  16.1120 H 1 RES   0.0000
12322 C  58.4090  28.1960  17.5120 C 1 RES   0.0000
12323 H  57.3090  28.1960  17.5120 H 1 RES   0.0000
12324 H  59.5090  28.1960  17.5120 H 1 RES   0.0000
12325 C  58.4090  28.1960  18.9120 C 1 RES   0.0000
12326 H  57.3090  28.1960  18.9120 H 1 RES   0.0000
12327 H  59.5090  28.1960  18.9120 H 1 RES   0.0000
12328 C  58.4090  28.1960  20.3120 C 1 RES   0.0000
12329 H  57.3090  28.1960  20.3120 H 1 RES   0.0000
12330 H  59.5090  28.1960  20.3120 H 1 RES   0.0000
12331 C  58.4090  28.1960  21.7120 C 1 RES   0.0000
12332 H  57.3090  28.1960  21.7120 H 1 RES   0.0000
12333 H  59.5090  28.1960  21.7120 H 1 RES   0.0000
12334 C  58.4090  28.1960  23.1120 C 1 RES   0.0000
12335 H  57.3090  28.1960  23.1120 H 1 RES   0.0000
12336 H  59.5090  28.1960  23.1120 H 1 RES   0.0000
12337 C  58.4090  28.1960  24.5120 C 1 RES   0.0000
12338 H  57.3090  28.1960  24.5120 H 1 RES   0.0000
12339 H  59.5090  28.1960  24.5120 H 1 RES   0.0000
12340 C  58.4090  28.1960  25.9120 C 1 RES   0.0000
12341 H  59.4790  28.1960  25.9120 H 1 RES   0.0000
12342 H  58.0520  27.5430  26.6810 H 1 RES   0.0000
12343 H  58.0520  29.1890  26.0930 H 1 RES   0.0000
12344 Si  58.4090  28.1960  11.9120 Si 1 RES   0.0000
12345 O  59.7163  28.1960  11.9120 O 1 RES   0.0000
12346 H  60.0435  28.8670  11.9436 H 1 RES   0.0000
12347 O  56.9588  28.1960  12.0629 O 1 RES   0.0000
12348 H  56.5911  27.3940  11.9803 H 1 RES   0.0000
12349 C  58.4090  44.7390  13.3120 C 1 RES   0.0000
12350 H  57.3090  44.7390  13.3120 H 1 RES   0.0000
12351 H  59.5090  44.7390  13.3120 H 1 RES   0.0000
12352 C  58.4090  44.7390  14.7120 C 1 RES   0.0000
12353 H  57.3090  44.7390  14.7120 H 1 RES   0.0000
12354 H  59.5090  44.7390  14.7120 H 1 RES   0.0000
12355 C  58.4090  44.7390  16.1120 C 1 RES   0.0000
12356 H  57.3090  44.7390  16.1120 H 1 RES   0.0000
12357 H  59.5090  44.7390  16.1120 H 1 RES   0.0000
12358 C  58.4090  44.7390  17.5120 C 1 RES   0.0000
12359 H  57.3090  44.7390  17.5120 H 1 RES   0.0000
12360 H  59.5090  44.7390  17.5120 H 1 RES   0.0000
12361 C  58.4090  44.7390  18.9120 C 1 RES   0.0000
12362 H  57.3090  44.7390  18.9120 H 1 RES   0.0000
12363 H  59.5090  44.7390  18.9120 H 1 RES   0.0000
12364 C  58.4090  44.7390  20.3120 C 1 RES   0.0000
12365 H  57.3090  44.7390  20.3120 H 1 RES   0.0000
12366 H  59.5090  44.7390  20.3120 H 1 RES   0.0000
12367 C  58.4090  44.7390  21.7120 C 1 RES   0.0000
12368 H  57.3090  44.7390  21.7120 H 1 RES   0.0000
12369 H  59.5090  44.7390  21.7120 H 1 RES   0.0000
12370 C  58.4090  44.7390  23.1120 C 1 RES   0.0000
12371 H  57.3090  44.7390  23.1120 H 1 RES   0.0000
12372 H  59.5090  44.7390  23.1120 H 1 RES   0.0000
12373 C  58.4090  44.7390  24.5120 C 1 RES   0.0000
12374 H  57.3090  44.7390  24.5120 H 1 RES   0.0000
12375 H  59.5090  44.7390  24.5120 H 1 RES   0.0000
12376 C  58.4090  44.7390  25.9120 C 1 RES   0.0000
12377 H  59.4790  44.7390  25.9120 H 1 RES   0.0000
12378 H  58.0520  44.0860  26.6810 H 1 RES   0.0000
12379 H  58.0520  45.7320  26.0930 H 1 RES   0.0000
12380 Si  58.4090  44.7390  11.9120 Si 1 RES   0.0000
12381 O  59.7163  44.7390  11.9120 O 1 RES   0.0000
12382 H  60.0435  45.4100  11.9436 H 1 RES   0.0000
12383 O  56.9588  44.7390  12.0629 O 1 RES   0.0000
12384 H  56.5911  43.9370  11.9803 H 1 RES   0.0000
12385 C  58.4090  61.2440  13.3120 C 1 RES   0.0000
12386 H  57.3090  61.2440  13.3120 H 1 RES   0.0000
12387 H  59.5090  61.2440  13.3120 H 1 RES   0.0000
12388 C  58.4090  61.2440  14.7120 C 1 RES   0.0000
12389 H  57.3090  61.2440  14.7120 H 1 RES   0.0000
12390 H  59.5090  61.2440  14.7120 H 1 RES   0.0000
12391 C  58.4090  61.2440  16.1120 C 1 RES   0.0000
12392 H  57.3090  61.2440  16.1120 H 1 RES   0.0000
12393 H  59.5090  61.2440  16.1120 H 1 RES   0.0000
12394 C  58.4090  61.2440  17.5120 C 1 RES   0.0000
12395 H  57.3090  61.2440  17.5120 H 1 RES   0.0000
12396 H  59.5090  61.2440  17.5120 H 1 RES   0.0000
12397 C  58.4090  61.2440  18.9120 C 1 RES   0.0000
12398 H  57.3090  61.2440  18.9120 H 1 RES   0.0000
12399 H  59.5090  61.2440  18.9120 H 1 RES   0.0000
12400 C  58.4090  61.2440  20.3120 C 1 RES   0.0000
12401 H  57.3090  61.2440  20.3120 H 1 RES   0.0000
12402 H  59.5090  61.2440  20.3120 H 1 RES   0.0000
12403 C  58.4090  61.2440  21.7120 C 1 RES   0.0000
12404 H  57.3090  61.2440  21.7120 H 1 RES   0.0000
12405 H  59.5090  61.2440  21.7120 H 1 RES   0.0000
12406 C  58.4090  61.2440  23.1120 C 1 RES   0.0000
12407 H  57.3090  61.2440  23.1120 H 1 RES   0.0000
12408 H  59.5090  61.2440  23.1120 H 1 RES   0.0000
12409 C  58.4090  61.2440  24.5120 C 1 RES   0.0000
12410 H  57.3090  61.2440  24.5120 H 1 RES   0.0000
12411 H  59.5090  61.2440  24.5120 H 1 RES   0.0000
12412 C  58.4090  61.2440  25.9120 C 1 RES   0.0000
12413 H  59.4790  61.2440  25.9120 H 1 RES   0.0000
12414 H  58.0520  60.5910  26.6810 H 1 RES   0.0000
12415 H  58.0520  62.2370  26.0930 H 1 RES   0.0000
12416 Si  58.4090  61.2440  11.9120 Si 1 RES   0.0000
12417 O  59.7163  61.2440  11.9120 O 1 RES   0.0000
12418 H  60.0435  61.9150  11.9436 H 1 RES   0.0000
12419 O  56.9588  61.2440  12.0629 O 1 RES   0.0000
12420 H  56.5911  60.4420  11.9803 H 1 RES   0.0000
12421 C  58.4090  77.7490  13.3120 C 1 RES   0.0000
12422 H  57.3090  77.7490  13.3120 H 1 RES   0.0000
12423 H  59.5090  77.7490  13.3120 H 1 RES   0.0000
12424 C  58.4090  77.7490  14.7120 C 1 RES   0.0000
12425 H  57.3090  77.7490  14.7120 H 1 RES   0.0000
12426 H  59.5090  77.7490  14.7120 H 1 RES   0.0000
12427 C  58.4090  77.7490  16.1120 C 1 RES   0.0000
12428 H  57.3090  77.7490  16.1120 H 1 RES   0.0000
12429 H  59.5090  77.7490  16.1120 H 1 RES   0.0000
12430 C  58.4090  77.7490  17.5120 C 1 RES   0.0000
12431 H  57.3090  77.7490  17.5120 H 1 RES   0.0000
12432 H  59.5090  77.7490  17.5120 H 1 RES   0.0000
12433 C  58.4090  77.7490  18.9120 C 1 RES   0.0000
12434 H  57.3090  77.7490  18.9120 H 1 RES   0.0000
12435 H  59.5090  77.7490  18.9120 H 1 RES   0.0000
12436 C  58.4090  77.7490  20.3120 C 1 RES   0.0000
12437 H  57.3090  77.7490  20.3120 H 1 RES   0.0000
12438 H  59.5090  77.7490  20.3120 H 1 RES   0.0000
12439 C  58.4090  77.7490  21.7120 C 1 RES   0.0000
12440 H  57.3090  77.7490  21.7120 H 1 RES   0.0000
12441 H  59.5090  77.7490  21.7120 H 1 RES   0.0000
12442 C  58.4090  77.7490  23.1120 C 1 RES   0.0000
12443 H  57.3090  77.7490  23.1120 H 1 RES   0.0000
12444 H  59.5090  77.7490  23.1120 H 1 RES   0.0000
12445 C  58.4090  77.7490  24.5120 C 1 RES   0.0000
12446 H  57.3090  77.7490  24.5120 H 1 RES   0.0000
12447 H  59.5090  77.7490  24.5120 H 1 RES   0.0000
12448 C  58.4090  77.7490  25.9120 C 1 RES   0.0000
12449 H  59.4790  77.7490  25.9120 H 1 RES   0.0000
12450 H  58.0520  77.0960  26.6810 H 1 RES   0.0000
12451 H  58.0520  78.7420  26.0930 H 1 RES   0.0000
12452 Si  58.4090  77.7490  11.9120 Si 1 RES   0.0000
12453 O  59.7163  77.7490  11.9120 O 1 RES   0.0000
12454 H  60.0435  78.4200  11.9436 H 1 RES   0.0000
12455 O  56.9588  77.7490  12.0629 O 1 RES   0.0000
12456 H  56.5911  76.9470  11.9803 H 1 RES   0.0000
12457 C  60.7920  90.1650  13.3120 C 1 RES   0.0000
12458 H  59.6920  90.1650  13.3120 H 1 RES   0.0000
12459 H  61.8920  90.1650  13.3120 H 1 RES   0.0000
12460 C  60.7920  90.1650  14.7120 C 1 RES   0.0000
12461 H  59.6920  90.1650  14.7120 H 1 RES   0.0000
12462 H  61.8920  90.1650  14.7120 H 1 RES   0.0000
12463 C  60.7920  90.1650  16.1120 C 1 RES   0.0000
12464 H  59.6920  90.1650  16.1120 H 1 RES   0.0000
12465 H  61.8920  90.1650  16.1120 H 1 RES   0.0000
12466 C  60.7920  90.1650  17.5120 C 1 RES   0.0000
12467 H  59.6920  90.1650  17.5120 H 1 RES   0.0000
12468 H  61.8920  90.1650  17.5120 H 1 RES   0.0000
12469 C  60.7920  90.1650  18.9120 C 1 RES   0.0000
12470 H  59.6920  90.1650  18.9120 H 1 RES   0.0000
12471 H  61.8920  90.1650  18.9120 H 1 RES   0.0000
12472 C  60.7920  90.1650  20.3120 C 1 RES   0.0000
12473 H  59.6920  90.1650  20.3120 H 1 RES   0.0000
12474 H  61.8920  90.1650  20.3120 H 1 RES   0.0000
12475 C  60.7920  90.1650  21.7120 C 1 RES   0.0000
12476 H  59.6920  90.1650  21.7120 H 1 RES   0.0000
12477 H  61.8920  90.1650  21.7120 H 1 RES   0.0000
12478 C  60.7920  90.1650  23.1120 C 1 RES   0.0000
12479 H  59.6920  90.1650  23.1120 H 1 RES   0.0000
12480 H  61.8920  90.1650  23.1120 H 1 RES   0.0000
12481 C  60.7920  90.1650  24.5120 C 1 RES   0.0000
12482 H  59.6920  90.1650  24.5120 H 1 RES   0.0000
12483 H  61.8920  90.1650  24.5120 H 1 RES   0.0000
12484 C  60.7920  90.1650  25.9120 C 1 RES   0.0000
12485 H  61.8620  90.1650  25.9120 H 1 RES   0.0000
12486 H  60.4350  89.5120  26.6810 H 1 RES   0.0000
12487 H  60.4350  91.1580  26.0930 H 1 RES   0.0000
12488 Si  60.7920  90.1650  11.9120 Si 1 RES   0.0000
12489 O  62.0993  90.1650  11.9120 O 1 RES   0.0000
12490 H  62.4265  90.8360  11.9436 H 1 RES   0.0000
12491 O  59.3418  90.1650  12.0629 O 1 RES   0.0000
12492 H  58.9741  89.3630  11.9803 H 1 RES   0.0000
12493 C  60.7920 106.6700  13.3120 C 1 RES   0.0000
12494 H  59.6920 106.6700  13.3120 H 1 RES   0.0000
12495 H  61.8920 106.6700  13.3120 H 1 RES   0.0000
12496 C  60.7920 106.6700  14.7120 C 1 RES   0.0000
12497 H  59.6920 106.6700  14.7120 H 1 RES   0.0000
12498 H  61.8920 106.6700  14.7120 H 1 RES   0.0000
12499 C  60.7920 106.6700  16.1120 C 1 RES   0.0000
12500 H  59.6920 106.6700  16.1120 H 1 RES   0.0000
12501 H  61.8920 106.6700  16.1120 H 1 RES   0.0000
12502 C  60.7920 106.6700  17.5120 C 1 RES   0.0000
12503 H  59.6920 106.6700  17.5120 H 1 RES   0.0000
12504 H  61.8920 106.6700  17.5120 H 1 RES   0.0000
12505 C  60.7920 106.6700  18.9120 C 1 RES   0.0000
12506 H  59.6920 106.6700  18.9120 H 1 RES   0.0000
12507 H  61.8920 106.6700  18.9120 H 1 RES   0.0000
12508 C  60.7920 106.6700  20.3120 C 1 RES   0.0000
12509 H  59.6920 106.6700  20.3120 H 1 RES   0.0000
12510 H  61.8920 106.6700  20.3120 H 1 RES   0.0000
12511 C  60.7920 106.6700  21.7120 C 1 RES   0.0000
12512 H  59.6920 106.6700  21.7120 H 1 RES   0.0000
12513 H  61.8920 106.6700  21.7120 H 1 RES   0.0000
12514 C  60.7920 106.6700  23.1120 C 1 RES   0.0000
12515 H  59.6920 106.6700  23.1120 H 1 RES   0.0000
12516 H  61.8920 106.6700  23.1120 H 1 RES   0.0000
12517 C  60.7920 106.6700  24.5120 C 1 RES   0.0000
12518 H  59.6920 106.6700  24.5120 H 1 RES   0.0000
12519 H  61.8920 106.6700  24.5120 H 1 RES   0.0000
12520 C  60.7920 106.6700  25.9120 C 1 RES   0.0000
12521 H  61.8620 106.6700  25.9120 H 1 RES   0.0000
12522 H  60.4350 106.0170  26.6810 H 1 RES   0.0000
12523 H  60.4350 107.6630  26.0930 H 1 RES   0.0000
12524 Si  60.7920 106.6700  11.9120 Si 1 RES   0.0000
12525 O  62.0993 106.6700  11.9120 O 1 RES   0.0000
12526 H  62.4265 107.3410  11.9436 H 1 RES   0.0000
12527 O  59.3418 106.6700  12.0629 O 1 RES   0.0000
12528 H  58.9741 105.8680  11.9803 H 1 RES   0.0000
12529 C  70.3210  -0.7250  13.3120 C 1 RES   0.0000
12530 H  69.2210  -0.7250  13.3120 H 1 RES   0.0000
12531 H  71.4210  -0.7250  13.3120 H 1 RES   0.0000
12532 C  70.3210  -0.7250  14.7120 C 1 RES   0.0000
12533 H  69.2210  -0.7250  14.7120 H 1 RES   0.0000
12534 H  71.4210  -0.7250  14.7120 H 1 RES   0.0000
12535 C  70.3210  -0.7250  16.1120 C 1 RES   0.0000
12536 H  69.2210  -0.7250  16.1120 H 1 RES   0.0000
12537 H  71.4210  -0.7250  16.1120 H 1 RES   0.0000
12538 C  70.3210  -0.7250  17.5120 C 1 RES   0.0000
12539 H  69.2210  -0.7250  17.5120 H 1 RES   0.0000
12540 H  71.4210  -0.7250  17.5120 H 1 RES   0.0000
12541 C  70.3210  -0.7250  18.9120 C 1 RES   0.0000
12542 H  69.2210  -0.7250  18.9120 H 1 RES   0.0000
12543 H  71.4210  -0.7250  18.9120 H 1 RES   0.0000
12544 C  70.3210  -0.7250  20.3120 C 1 RES   0.0000
12545 H  69.2210  -0.7250  20.3120 H 1 RES   0.0000
12546 H  71.4210  -0.7250  20.3120 H 1 RES   0.0000
12547 C  70.3210  -0.7250  21.7120 C 1 RES   0.0000
12548 H  69.2210  -0.7250  21.7120 H 1 RES   0.0000
12549 H  71.4210  -0.7250  21.7120 H 1 RES   0.0000
12550 C  70.3210  -0.7250  23.1120 C 1 RES   0.0000
12551 H  69.2210  -0.7250  23.1120 H 1 RES   0.0000
12552 H  71.4210  -0.7250  23.1120 H 1 RES   0.0000
12553 C  70.3210  -0.7250  24.5120 C 1 RES   0.0000
12554 H  69.2210  -0.7250  24.5120 H 1 RES   0.0000
12555 H  71.4210  -0.7250  24.5120 H 1 RES   0.0000
12556 C  70.3210  -0.7250  25.9120 C 1 RES   0.0000
12557 H  71.3910  -0.7250  25.9120 H 1 RES   0.0000
12558 H  69.9640  -1.3780  26.6810 H 1 RES   0.0000
12559 H  69.9640   0.2680  26.0930 H 1 RES   0.0000
12560 Si  70.3210  -0.7250  11.9120 Si 1 RES   0.0000
12561 O  71.6283  -0.7250  11.9120 O 1 RES   0.0000
12562 H  71.9555  -0.0540  11.9436 H 1 RES   0.0000
12563 O  68.8708  -0.7250  12.0629 O 1 RES   0.0000
12564 H  68.5031  -1.5270  11.9803 H 1 RES   0.0000
12565 C  70.3210  15.8170  13.3120 C 1 RES   0.0000
12566 H  69.2210  15.8170  13.3120 H 1 RES   0.0000
12567 H  71.4210  15.8170  13.3120 H 1 RES   0.0000
12568 C  70.3210  15.8170  14.7120 C 1 RES   0.0000
12569 H  69.2210  15.8170  14.7120 H 1 RES   0.0000
12570 H  71.4210  15.8170  14.7120 H 1 RES   0.0000
12571 C  70.3210  15.8170  16.1120 C 1 RES   0.0000
12572 H  69.2210  15.8170  16.1120 H 1 RES   0.0000
12573 H  71.4210  15.8170  16.1120 H 1 RES   0.0000
12574 C  70.3210  15.8170  17.5120 C 1 RES   0.0000
12575 H  69.2210  15.8170  17.5120 H 1 RES   0.0000
12576 H  71.4210  15.8170  17.5120 H 1 RES   0.0000
12577 C  70.3210  15.8170  18.9120 C 1 RES   0.0000
12578 H  69.2210  15.8170  18.9120 H 1 RES   0.0000
12579 H  71.4210  15.8170  18.9120 H 1 RES   0.0000
12580 C  70.3210  15.8170  20.3120 C 1 RES   0.0000
12581 H  69.2210  15.8170  20.3120 H 1 RES   0.0000
12582 H  71.4210  15.8170  20.3120 H 1 RES   0.0000
12583 C  70.3210  15.8170  21.7120 C 1 RES   0.0000
12584 H  69.2210  15.8170  21.7120 H 1 RES   0.0000
12585 H  71.4210  15.8170  21.7120 H 1 RES   0.0000
12586 C  70.3210  15.8170  23.1120 C 1 RES   0.0000
12587 H  69.2210  15.8170  23.1120 H 1 RES   0.0000
12588 H  71.4210  15.8170  23.1120 H 1 RES   0.0000
12589 C  70.3210  15.8170  24.5120 C 1 RES   0.0000
12590 H  69.2210  15.8170  24.5120 H 1 RES   0.0000
12591 H  71.4210  15.8170  24.5120 H 1 RES   0.0000
12592 C  70.3210  15.8170  25.9120 C 1 RES   0.0000
12593 H  71.3910  15.8170  25.9120 H 1 RES   0.0000
12594 H  69.9640  15.1640  26.6810 H 1 RES   0.0000
12595 H  69.9640  16.8100  26.0930 H 1 RES   0.0000
12596 Si  70.3210  15.8170  11.9120 Si 1 RES   0.0000
12597 O  71.6283  15.8170  11.9120 O 1 RES   0.0000
12598 H  71.9555  16.4880  11.9436 H 1 RES   0.0000
12599 O  68.8708  15.8170  12.0629 O 1 RES   0.0000
12600 H  68.5031  15.0150  11.9803 H 1 RES   0.0000
12601 C  70.3210  32.3220  13.3120 C 1 RES   0.0000
12602 H  69.2210  32.3220  13.3120 H 1 RES   0.0000
12603 H  71.4210  32.3220  13.3120 H 1 RES   0.0000
12604 C  70.3210  32.3220  14.7120 C 1 RES   0.0000
12605 H  69.2210  32.3220  14.7120 H 1 RES   0.0000
12606 H  71.4210  32.3220  14.7120 H 1 RES   0.0000
12607 C  70.3210  32.3220  16.1120 C 1 RES   0.0000
12608 H  69.2210  32.3220  16.1120 H 1 RES   0.0000
12609 H  71.4210  32.3220  16.1120 H 1 RES   0.0000
12610 C  70.3210  32.3220  17.5120 C 1 RES   0.0000
12611 H  69.2210  32.3220  17.5120 H 1 RES   0.0000
12612 H  71.4210  32.3220  17.5120 H 1 RES   0.0000
12613 C  70.3210  32.3220  18.9120 C 1 RES   0.0000
12614 H  69.2210  32.3220  18.9120 H 1 RES   0.0000
12615 H  71.4210  32.3220  18.9120 H 1 RES   0.0000
12616 C  70.3210  32.3220  20.3120 C 1 RES   0.0000
12617 H  69.2210  32.3220  20.3120 H 1 RES   0.0000
12618 H  71.4210  32.3220  20.3120 H 1 RES   0.0000
12619 C  70.3210  32.3220  21.7120 C 1 RES   0.0000
12620 H  69.2210  32.3220  21.7120 H 1 RES   0.0000
12621 H  71.4210  32.3220  21.7120 H 1 RES   0.0000
12622 C  70.3210  32.3220  23.1120 C 1 RES   0.0000
12623 H  69.2210  32.3220  23.1120 H 1 RES   0.0000
12624 H  71.4210  32.3220  23.1120 H 1 RES   0.0000
12625 C  70.3210  32.3220  24.5120 C 1 RES   0.0000
12626 H  69.2210  32.3220  24.5120 H 1 RES   0.0000
12627 H  71.4210  32.3220  24.5120 H 1 RES   0.0000
12628 C  70.3210  32.3220  25.9120 C 1 RES   0.0000
12629 H  71.3910  32.3220  25.9120 H 1 RES   0.0000
12630 H  69.9640  31.6690  26.6810 H 1 RES   0.0000
12631 H  69.9640  33.3150  26.0930 H 1 RES   0.0000
12632 Si  70.3210  32.3220  11.9120 Si 1 RES   0.0000
12633 O  71.6283  32.3220  11.9120 O 1 RES   0.0000
12634 H  71.9555  32.9930  11.9436 H 1 RES   0.0000
12635 O  68.8708  32.3220  12.0629 O 1 RES   0.0000
12636 H  68.5031  31.5200  11.9803 H 1 RES   0.0000
12637 C  72.7030  44.7390  13.3120 C 1 RES   0.0000
12638 H  71.6030  44.7390  13.3120 H 1 RES   0.0000
12639 H  73.8030  44.7390  13.3120 H 1 RES   0.0000
12640 C  72.7030  44.7390  14.7120 C 1 RES   0.0000
12641 H  71.6030  44.7390  14.7120 H 1 RES   0.0000
12642 H  73.8030  44.7390  14.7120 H 1 RES   0.0000
12643 C  72.7030  44.7390  16.1120 C 1 RES   0.0000
12644 H  71.6030  44.7390  16.1120 H 1 RES   0.0000
12645 H  73.8030  44.7390  16.1120 H 1 RES   0.0000
12646 C  72.7030  44.7390  17.5120 C 1 RES   0.0000
12647 H  71.6030  44.7390  17.5120 H 1 RES   0.0000
12648 H  73.8030  44.7390  17.5120 H 1 RES   0.0000
12649 C  72.7030  44.7390  18.9120 C 1 RES   0.0000
12650 H  71.6030  44.7390  18.9120 H 1 RES   0.0000
12651 H  73.8030  44.7390  18.9120 H 1 RES   0.0000
12652 C  72.7030  44.7390  20.3120 C 1 RES   0.0000
12653 H  71.6030  44.7390  20.3120 H 1 RES   0.0000
12654 H  73.8030  44.7390  20.3120 H 1 RES   0.0000
12655 C  72.7030  44.7390  21.7120 C 1 RES   0.0000
12656 H  71.6030  44.7390  21.7120 H 1 RES   0.0000
12657 H  73.8030  44.7390  21.7120 H 1 RES   0.0000
12658 C  72.7030  44.7390  23.1120 C 1 RES   0.0000
12659 H  71.6030  44.7390  23.1120 H 1 RES   0.0000
12660 H  73.8030  44.7390  23.1120 H 1 RES   0.0000
12661 C  72.7030  44.7390  24.5120 C 1 RES   0.0000
12662 H  71.6030  44.7390  24.5120 H 1 RES   0.0000
12663 H  73.8030  44.7390  24.5120 H 1 RES   0.0000
12664 C  72.7030  44.7390  25.9120 C 1 RES   0.0000
12665 H  73.7730  44.7390  25.9120 H 1 RES   0.0000
12666 H  72.3460  44.0860  26.6810 H 1 RES   0.0000
12667 H  72.3460  45.7320  26.0930 H 1 RES   0.0000
12668 Si  72.7030  44.7390  11.9120 Si 1 RES   0.0000
12669 O  74.0103  44.7390  11.9120 O 1 RES   0.0000
12670 H  74.3375  45.4100  11.9436 H 1 RES   0.0000
12671 O  71.2528  44.7390  12.0629 O 1 RES   0.0000
12672 H  70.8851  43.9370  11.9803 H 1 RES   0.0000
12673 C  72.7030  61.2440  13.3120 C 1 RES   0.0000
12674 H  71.6030  61.2440  13.3120 H 1 RES   0.0000
12675 H  73.8030  61.2440  13.3120 H 1 RES   0.0000
12676 C  72.7030  61.2440  14.7120 C 1 RES   0.0000
12677 H  71.6030  61.2440  14.7120 H 1 RES   0.0000
12678 H  73.8030  61.2440  14.7120 H 1 RES   0.0000
12679 C  72.7030  61.2440  16.1120 C 1 RES   0.0000
12680 H  71.6030  61.2440  16.1120 H 1 RES   0.0000
12681 H  73.8030  61.2440  16.1120 H 1 RES   0.0000
12682 C  72.7030  61.2440  17.5120 C 1 RES   0.0000
12683 H  71.6030  61.2440  17.5120 H 1 RES   0.0000
12684 H  73.8030  61.2440  17.5120 H 1 RES   0.0000
12685 C  72.7030  61.2440  18.9120 C 1 RES   0.0000
12686 H  71.6030  61.2440  18.9120 H 1 RES   0.0000
12687 H  73.8030  61.2440  18.9120 H 1 RES   0.0000
12688 C  72.7030  61.2440  20.3120 C 1 RES   0.0000
12689 H  71.6030  61.2440  20.3120 H 1 RES   0.0000
12690 H  73.8030  61.2440  20.3120 H 1 RES   0.0000
12691 C  72.7030  61.2440  21.7120 C 1 RES   0.0000
12692 H  71.6030  61.2440  21.7120 H 1 RES   0.0000
12693 H  73.8030  61.2440  21.7120 H 1 RES   0.0000
12694 C  72.7030  61.2440  23.1120 C 1 RES   0.0000
12695 H  71.6030  61.2440  23.1120 H 1 RES   0.0000
12696 H  73.8030  61.2440  23.1120 H 1 RES   0.0000
12697 C  72.7030  61.2440  24.5120 C 1 RES   0.0000
12698 H  71.6030  61.2440  24.5120 H 1 RES   0.0000
12699 H  73.8030  61.2440  24.5120 H 1 RES   0.0000
12700 C  72.7030  61.2440  25.9120 C 1 RES   0.0000
12701 H  73.7730  61.2440  25.9120 H 1 RES   0.0000
12702 H  72.3460  60.5910  26.6810 H 1 RES   0.0000
12703 H  72.3460  62.2370  26.0930 H 1 RES   0.0000
12704 Si  72.7030  61.2440  11.9120 Si 1 RES   0.0000
12705 O  74.0103  61.2440  11.9120 O 1 RES   0.0000
12706 H  74.3375  61.9150  11.9436 H 1 RES   0.0000
12707 O  71.2528  61.2440  12.0629 O 1 RES   0.0000
12708 H  70.8851  60.4420  11.9803 H 1 RES   0.0000
12709 C  70.3210  73.6220  13.3120 C 1 RES   0.0000
12710 H  69.2210  73.6220  13.3120 H 1 RES   0.0000
12711 H  71.4210  73.6220  13.3120 H 1 RES   0.0000
12712 C  70.3210  73.6220  14.7120 C 1 RES   0.0000
12713 H  69.2210  73.6220  14.7120 H 1 RES   0.0000
12714 H  71.4210  73.6220  14.7120 H 1 RES   0.0000
12715 C  70.3210  73.6220  16.1120 C 1 RES   0.0000
12716 H  69.2210  73.6220  16.1120 H 1 RES   0.0000
12717 H  71.4210  73.6220  16.1120 H 1 RES   0.0000
12718 C  70.3210  73.6220  17.5120 C 1 RES   0.0000
12719 H  69.2210  73.6220  17.5120 H 1 RES   0.0000
12720 H  71.4210  73.6220  17.5120 H 1 RES   0.0000
12721 C  70.3210  73.6220  18.9120 C 1 RES   0.0000
12722 H  69.2210  73.6220  18.9120 H 1 RES   0.0000
12723 H  71.4210  73.6220  18.9120 H 1 RES   0.0000
12724 C  70.3210  73.6220  20.3120 C 1 RES   0.0000
12725 H  69.2210  73.6220  20.3120 H 1 RES   0.0000
12726 H  71.4210  73.6220  20.3120 H 1 RES   0.0000
12727 C  70.3210  73.6220  21.7120 C 1 RES   0.0000
12728 H  69.2210  73.6220  21.7120 H 1 RES   0.0000
12729 H  71.4210  73.6220  21.7120 H 1 RES   0.0000
12730 C  70.3210  73.6220  23.1120 C 1 RES   0.0000
12731 H  69.2210  73.6220  23.1120 H 1 RES   0.0000
12732 H  71.4210  73.6220  23.1120 H 1 RES   0.0000
12733 C  70.3210  73.6220  24.5120 C 1 RES   0.0000
12734 H  69.2210  73.6220  24.5120 H 1 RES   0.0000
12735 H  71.4210  73.6220  24.5120 H 1 RES   0.0000
12736 C  70.3210  73.6220  25.9120 C 1 RES   0.0000
12737 H  71.3910  73.6220  25.9120 H 1 RES   0.0000
12738 H  69.9640  72.9690  26.6810 H 1 RES   0.0000
12739 H  69.9640  74.6150  26.0930 H 1 RES   0.0000
12740 Si  70.3210  73.6220  11.9120 Si 1 RES   0.0000
12741 O  71.6283  73.6220  11.9120 O 1 RES   0.0000
12742 H  71.9555  74.2930  11.9436 H 1 RES   0.0000
12743 O  68.8708  73.6220  12.0629 O 1 RES   0.0000
12744 H  68.5031  72.8200  11.9803 H 1 RES   0.0000
12745 C  70.3210  90.1650  13.3120 C 1 RES   0.0000
12746 H  69.2210  90.1650  13.3120 H 1 RES   0.0000
12747 H  71.4210  90.1650  13.3120 H 1 RES   0.0000
12748 C  70.3210  90.1650  14.7120 C 1 RES   0.0000
12749 H  69.2210  90.1650  14.7120 H 1 RES   0.0000
12750 H  71.4210  90.1650  14.7120 H 1 RES   0.0000
12751 C  70.3210  90.1650  16.1120 C 1 RES   0.0000
12752 H  69.2210  90.1650  16.1120 H 1 RES   0.0000
12753 H  71.4210  90.1650  16.1120 H 1 RES   0.0000
12754 C  70.3210  90.1650  17.5120 C 1 RES   0.0000
12755 H  69.2210  90.1650  17.5120 H 1 RES   0.0000
12756 H  71.4210  90.1650  17.5120 H 1 RES   0.0000
12757 C  70.3210  90.1650  18.9120 C 1 RES   0.0000
12758 H  69.2210  90.1650  18.9120 H 1 RES   0.0000
12759 H  71.4210  90.1650  18.9120 H 1 RES   0.0000
12760 C  70.3210  90.1650  20.3120 C 1 RES   0.0000
12761 H  69.2210  90.1650  20.3120 H 1 RES   0.0000
12762 H  71.4210  90.1650  20.3120 H 1 RES   0.0000
12763 C  70.3210  90.1650  21.7120 C 1 RES   0.0000
12764 H  69.2210  90.1650  21.7120 H 1 RES   0.0000
12765 H  71.4210  90.1650  21.7120 H 1 RES   0.0000
12766 C  70.3210  90.1650  23.1120 C 1 RES   0.0000
12767 H  69.2210  90.1650  23.1120 H 1 RES   0.0000
12768 H  71.4210  90.1650  23.1120 H 1 RES   0.0000
12769 C  70.3210  90.1650  24.5120 C 1 RES   0.0000
12770 H  69.2210  90.1650  24.5120 H 1 RES   0.0000
12771 H  71.4210  90.1650  24.5120 H 1 RES   0.0000
12772 C  70.3210  90.1650  25.9120 C 1 RES   0.0000
12773 H  71.3910  90.1650  25.9120 H 1 RES   0.0000
12774 H  69.9640  89.5120  26.6810 H 1 RES   0.0000
12775 H  69.9640  91.1580  26.0930 H 1 RES   0.0000
12776 Si  70.3210  90.1650  11.9120 Si 1 RES   0.0000
12777 O  71.6283  90.1650  11.9120 O 1 RES   0.0000
12778 H  71.9555  90.8360  11.9436 H 1 RES   0.0000
12779 O  68.8708  90.1650  12.0629 O 1 RES   0.0000
12780 H  68.5031  89.3630  11.9803 H 1 RES   0.0000
12781 C  70.3210 106.6700  13.3120 C 1 RES   0.0000
12782 H  69.2210 106.6700  13.3120 H 1 RES   0.0000
12783 H  71.4210 106.6700  13.3120 H 1 RES   0.0000
12784 C  70.3210 106.6700  14.7120 C 1 RES   0.0000
12785 H  69.2210 106.6700  14.7120 H 1 RES   0.0000
12786 H  71.4210 106.6700  14.7120 H 1 RES   0.0000
12787 C  70.3210 106.6700  16.1120 C 1 RES   0.0000
12788 H  69.2210 106.6700  16.1120 H 1 RES   0.0000
12789 H  71.4210 106.6700  16.1120 H 1 RES   0.0000
12790 C  70.3210 106.6700  17.5120 C 1 RES   0.0000
12791 H  69.2210 106.6700  17.5120 H 1 RES   0.0000
12792 H  71.4210 106.6700  17.5120 H 1 RES   0.0000
12793 C  70.3210 106.6700  18.9120 C 1 RES   0.0000
12794 H  69.2210 106.6700  18.9120 H 1 RES   0.0000
12795 H  71.4210 106.6700  18.9120 H 1 RES   0.0000
12796 C  70.3210 106.6700  20.3120 C 1 RES   0.0000
12797 H  69.2210 106.6700  20.3120 H 1 RES   0.0000
12798 H  71.4210 106.6700  20.3120 H 1 RES   0.0000
12799 C  70.3210 106.6700  21.7120 C 1 RES   0.0000
12800 H  69.2210 106.6700  21.7120 H 1 RES   0.0000
12801 H  71.4210 106.6700  21.7120 H 1 RES   0.0000
12802 C  70.3210 106.6700  23.1120 C 1 RES   0.0000
12803 H  69.2210 106.6700  23.1120 H 1 RES   0.0000
12804 H  71.4210 106.6700  23.1120 H 1 RES   0.0000
12805 C  70.3210 106.6700  24.5120 C 1 RES   0.0000
12806 H  69.2210 106.6700  24.5120 H 1 RES   0.0000
12807 H  71.4210 106.6700  24.5120 H 1 RES   0.0000
12808 C  70.3210 106.6700  25.9120 C 1 RES   0.0000
12809 H  71.3910 106.6700  25.9120 H 1 RES   0.0000
12810 H  69.9640 106.0170  26.6810 H 1 RES   0.0000
12811 H  69.9640 107.6630  26.0930 H 1 RES   0.0000
12812 Si  70.3210 106.6700  11.9120 Si 1 RES   0.0000
12813 O  71.6283 106.6700  11.9120 O 1 RES   0.0000
12814 H  71.9555 107.3410  11.9436 H 1 RES   0.0000
12815 O  68.8708 106.6700  12.0629 O 1 RES   0.0000
12816 H  68.5031 105.8680  11.9803 H 1 RES   0.0000
12817 C  84.6140  -0.7250  13.3120 C 1 RES   0.0000
12818 H  83.5140  -0.7250  13.3120 H 1 RES   0.0000
12819 H  85.7140  -0.7250  13.3120 H 1 RES   0.0000
12820 C  84.6140  -0.7250  14.7120 C 1 RES   0.0000
12821 H  83.5140  -0.7250  14.7120 H 1 RES   0.0000
12822 H  85.7140  -0.7250  14.7120 H 1 RES   0.0000
12823 C  84.6140  -0.7250  16.1120 C 1 RES   0.0000
12824 H  83.5140  -0.7250  16.1120 H 1 RES   0.0000
12825 H  85.7140  -0.7250  16.1120 H 1 RES   0.0000
12826 C  84.6140  -0.7250  17.5120 C 1 RES   0.0000
12827 H  83.5140  -0.7250  17.5120 H 1 RES   0.0000
12828 H  85.7140  -0.7250  17.5120 H 1 RES   0.0000
12829 C  84.6140  -0.7250  18.9120 C 1 RES   0.0000
12830 H  83.5140  -0.7250  18.9120 H 1 RES   0.0000
12831 H  85.7140  -0.7250  18.9120 H 1 RES   0.0000
12832 C  84.6140  -0.7250  20.3120 C 1 RES   0.0000
12833 H  83.5140  -0.7250  20.3120 H 1 RES   0.0000
12834 H  85.7140  -0.7250  20.3120 H 1 RES   0.0000
12835 C  84.6140  -0.7250  21.7120 C 1 RES   0.0000
12836 H  83.5140  -0.7250  21.7120 H 1 RES   0.0000
12837 H  85.7140  -0.7250  21.7120 H 1 RES   0.0000
12838 C  84.6140  -0.7250  23.1120 C 1 RES   0.0000
12839 H  83.5140  -0.7250  23.1120 H 1 RES   0.0000
12840 H  85.7140  -0.7250  23.1120 H 1 RES   0.0000
12841 C  84.6140  -0.7250  24.5120 C 1 RES   0.0000
12842 H  83.5140  -0.7250  24.5120 H 1 RES   0.0000
12843 H  85.7140  -0.7250  24.5120 H 1 RES   0.0000
12844 C  84.6140  -0.7250  25.9120 C 1 RES   0.0000
12845 H  85.6840  -0.7250  25.9120 H 1 RES   0.0000
12846 H  84.2570  -1.3780  26.6810 H 1 RES   0.0000
12847 H  84.2570   0.2680  26.0930 H 1 RES   0.0000
12848 Si  84.6140  -0.7250  11.9120 Si 1 RES   0.0000
12849 O  85.9213  -0.7250  11.9120 O 1 RES   0.0000
12850 H  86.2485  -0.0540  11.9436 H 1 RES   0.0000
12851 O  83.1638  -0.7250  12.0629 O 1 RES   0.0000
12852 H  82.7961  -1.5270  11.9803 H 1 RES   0.0000
12853 C  84.6140  15.8170  13.3120 C 1 RES   0.0000
12854 H  83.5140  15.8170  13.3120 H 1 RES   0.0000
12855 H  85.7140  15.8170  13.3120 H 1 RES   0.0000
12856 C  84.6140  15.8170  14.7120 C 1 RES   0.0000
12857 H  83.5140  15.8170  14.7120 H 1 RES   0.0000
12858 H  85.7140  15.8170  14.7120 H 1 RES   0.0000
12859 C  84.6140  15.8170  16.1120 C 1 RES   0.0000
12860 H  83.5140  15.8170  16.1120 H 1 RES   0.0000
12861 H  85.7140  15.8170  16.1120 H 1 RES   0.0000
12862 C  84.6140  15.8170  17.5120 C 1 RES   0.0000
12863 H  83.5140  15.8170  17.5120 H 1 RES   0.0000
12864 H  85.7140  15.8170  17.5120 H 1 RES   0.0000
12865 C  84.6140  15.8170  18.9120 C 1 RES   0.0000
12866 H  83.5140  15.8170  18.9120 H 1 RES   0.0000
12867 H  85.7140  15.8170  18.9120 H 1 RES   0.0000
12868 C  84.6140  15.8170  20.3120 C 1 RES   0.0000
12869 H  83.5140  15.8170  20.3120 H 1 RES   0.0000
12870 H  85.7140  15.8170  20.3120 H 1 RES   0.0000
12871 C  84.6140  15.8170  21.7120 C 1 RES   0.0000
12872 H  83.5140  15.8170  21.7120 H 1 RES   0.0000
12873 H  85.7140  15.8170  21.7120 H 1 RES   0.0000
12874 C  84.6140  15.8170  23.1120 C 1 RES   0.0000
12875 H  83.5140  15.8170  23.1120 H 1 RES   0.0000
12876 H  85.7140  15.8170  23.1120 H 1 RES   0.0000
12877 C  84.6140  15.8170  24.5120 C 1 RES   0.0000
12878 H  83.5140  15.8170  24.5120 H 1 RES   0.0000
12879 H  85.7140  15.8170  24.5120 H 1 RES   0.0000
12880 C  84.6140  15.8170  25.9120 C 1 RES   0.0000
12881 H  85.6840  15.8170  25.9120 H 1 RES   0.0000
12882 H  84.2570  15.1640  26.6810 H 1 RES   0.0000
12883 H  84.2570  16.8100  26.0930 H 1 RES   0.0000
12884 Si  84.6140  15.8170  11.9120 Si 1 RES   0.0000
12885 O  85.9213  15.8170  11.9120 O 1 RES   0.0000
12886 H  86.2485  16.4880  11.9436 H 1 RES   0.0000
12887 O  83.1638  15.8170  12.0629 O 1 RES   0.0000
12888 H  82.7961  15.0150  11.9803 H 1 RES   0.0000
12889 C  82.2320  28.1960  13.3120 C 1 RES   0.0000
12890 H  81.1320  28.1960  13.3120 H 1 RES   0.0000
12891 H  83.3320  28.1960  13.3120 H 1 RES   0.0000
12892 C  82.2320  28.1960  14.7120 C 1 RES   0.0000
12893 H  81.1320  28.1960  14.7120 H 1 RES   0.0000
12894 H  83.3320  28.1960  14.7120 H 1 RES   0.0000
12895 C  82.2320  28.1960  16.1120 C 1 RES   0.0000
12896 H  81.1320  28.1960  16.1120 H 1 RES   0.0000
12897 H  83.3320  28.1960  16.1120 H 1 RES   0.0000
12898 C  82.2320  28.1960  17.5120 C 1 RES   0.0000
12899 H  81.1320  28.1960  17.5120 H 1 RES   0.0000
12900 H  83.3320  28.1960  17.5120 H 1 RES   0.0000
12901 C  82.2320  28.1960  18.9120 C 1 RES   0.0000
12902 H  81.1320  28.1960  18.9120 H 1 RES   0.0000
12903 H  83.3320  28.1960  18.9120 H 1 RES   0.0000
12904 C  82.2320  28.1960  20.3120 C 1 RES   0.0000
12905 H  81.1320  28.1960  20.3120 H 1 RES   0.0000
12906 H  83.3320  28.1960  20.3120 H 1 RES   0.0000
12907 C  82.2320  28.1960  21.7120 C 1 RES   0.0000
12908 H  81.1320  28.1960  21.7120 H 1 RES   0.0000
12909 H  83.3320  28.1960  21.7120 H 1 RES   0.0000
12910 C  82.2320  28.1960  23.1120 C 1 RES   0.0000
12911 H  81.1320  28.1960  23.1120 H 1 RES   0.0000
12912 H  83.3320  28.1960  23.1120 H 1 RES   0.0000
12913 C  82.2320  28.1960  24.5120 C 1 RES   0.0000
12914 H  81.1320  28.1960  24.5120 H 1 RES   0.0000
12915 H  83.3320  28.1960  24.5120 H 1 RES   0.0000
12916 C  82.2320  28.1960  25.9120 C 1 RES   0.0000
12917 H  83.3020  28.1960  25.9120 H 1 RES   0.0000
12918 H  81.8750  27.5430  26.6810 H 1 RES   0.0000
12919 H  81.8750  29.1890  26.0930 H 1 RES   0.0000
12920 Si  82.2320  28.1960  11.9120 Si 1 RES   0.0000
12921 O  83.5393  28.1960  11.9120 O 1 RES   0.0000
12922 H  83.8665  28.8670  11.9436 H 1 RES   0.0000
12923 O  80.7818  28.1960  12.0629 O 1 RES   0.0000
12924 H  80.4140  27.3940  11.9803 H 1 RES   0.0000
12925 C  82.2320  44.7390  13.3120 C 1 RES   0.0000
12926 H  81.1320  44.7390  13.3120 H 1 RES   0.0000
12927 H  83.3320  44.7390  13.3120 H 1 RES   0.0000
12928 C  82.2320  44.7390  14.7120 C 1 RES   0.0000
12929 H  81.1320  44.7390  14.7120 H 1 RES   0.0000
12930 H  83.3320  44.7390  14.7120 H 1 RES   0.0000
12931 C  82.2320  44.7390  16.1120 C 1 RES   0.0000
12932 H  81.1320  44.7390  16.1120 H 1 RES   0.0000
12933 H  83.3320  44.7390  16.1120 H 1 RES   0.0000
12934 C  82.2320  44.7390  17.5120 C 1 RES   0.0000
12935 H  81.1320  44.7390  17.5120 H 1 RES   0.0000
12936 H  83.3320  44.7390  17.5120 H 1 RES   0.0000
12937 C  82.2320  44.7390  18.9120 C 1 RES   0.0000
12938 H  81.1320  44.7390  18.9120 H 1 RES   0.0000
12939 H  83.3320  44.7390  18.9120 H 1 RES   0.0000
12940 C  82.2320  44.7390  20.3120 C 1 RES   0.0000
12941 H  81.1320  44.7390  20.3120 H 1 RES   0.0000
12942 H  83.3320  44.7390  20.3120 H 1 RES   0.0000
12943 C  82.2320  44.7390  21.7120 C 1 RES   0.0000
12944 H  81.1320  44.7390  21.7120 H 1 RES   0.0000
12945 H  83.3320  44.7390  21.7120 H 1 RES   0.0000
12946 C  82.2320  44.7390  23.1120 C 1 RES   0.0000
12947 H  81.1320  44.7390  23.1120 H 1 RES   0.0000
12948 H  83.3320  44.7390  23.1120 H 1 RES   0.0000
12949 C  82.2320  44.7390  24.5120 C 1 RES   0.0000
12950 H  81.1320  44.7390  24.5120 H 1 RES   0.0000
12951 H  83.3320  44.7390  24.5120 H 1 RES   0.0000
12952 C  82.2320  44.7390  25.9120 C 1 RES   0.0000
12953 H  83.3020  44.7390  25.9120 H 1 RES   0.0000
12954 H  81.8750  44.0860  26.6810 H 1 RES   0.0000
12955 H  81.8750  45.7320  26.0930 H 1 RES   0.0000
12956 Si  82.2320  44.7390  11.9120 Si 1 RES   0.0000
12957 O  83.5393  44.7390  11.9120 O 1 RES   0.0000
12958 H  83.8665  45.4100  11.9436 H 1 RES   0.0000
12959 O  80.7818  44.7390  12.0629 O 1 RES   0.0000
12960 H  80.4140  43.9370  11.9803 H 1 RES   0.0000
12961 C  82.2320  61.2440  13.3120 C 1 RES   0.0000
12962 H  81.1320  61.2440  13.3120 H 1 RES   0.0000
12963 H  83.3320  61.2440  13.3120 H 1 RES   0.0000
12964 C  82.2320  61.2440  14.7120 C 1 RES   0.0000
12965 H  81.1320  61.2440  14.7120 H 1 RES   0.0000
12966 H  83.3320  61.2440  14.7120 H 1 RES   0.0000
12967 C  82.2320  61.2440  16.1120 C 1 RES   0.0000
12968 H  81.1320  61.2440  16.1120 H 1 RES   0.0000
12969 H  83.3320  61.2440  16.1120 H 1 RES   0.0000
12970 C  82.2320  61.2440  17.5120 C 1 RES   0.0000
12971 H  81.1320  61.2440  17.5120 H 1 RES   0.0000
12972 H  83.3320  61.2440  17.5120 H 1 RES   0.0000
12973 C  82.2320  61.2440  18.9120 C 1 RES   0.0000
12974 H  81.1320  61.2440  18.9120 H 1 RES   0.0000
12975 H  83.3320  61.2440  18.9120 H 1 RES   0.0000
12976 C  82.2320  61.2440  20.3120 C 1 RES   0.0000
12977 H  81.1320  61.2440  20.3120 H 1 RES   0.0000
12978 H  83.3320  61.2440  20.3120 H 1 RES   0.0000
12979 C  82.2320  61.2440  21.7120 C 1 RES   0.0000
12980 H  81.1320  61.2440  21.7120 H 1 RES   0.0000
12981 H  83.3320  61.2440  21.7120 H 1 RES   0.0000
12982 C  82.2320  61.2440  23.1120 C 1 RES   0.0000
12983 H  81.1320  61.2440  23.1120 H 1 RES   0.0000
12984 H  83.3320  61.2440  23.1120 H 1 RES   0.0000
12985 C  82.2320  61.2440  24.5120 C 1 RES   0.0000
12986 H  81.1320  61.2440  24.5120 H 1 RES   0.0000
12987 H  83.3320  61.2440  24.5120 H 1 RES   0.0000
12988 C  82.2320  61.2440  25.9120 C 1 RES   0.0000
12989 H  83.3020  61.2440  25.9120 H 1 RES   0.0000
12990 H  81.8750  60.5910  26.6810 H 1 RES   0.0000
12991 H  81.8750  62.2370  26.0930 H 1 RES   0.0000
12992 Si  82.2320  61.2440  11.9120 Si 1 RES   0.0000
12993 O  83.5393  61.2440  11.9120 O 1 RES   0.0000
12994 H  83.8665  61.9150  11.9436 H 1 RES   0.0000
12995 O  80.7818  61.2440  12.0629 O 1 RES   0.0000
12996 H  80.4140  60.4420  11.9803 H 1 RES   0.0000
12997 C  82.2320  77.7490  13.3120 C 1 RES   0.0000
12998 H  81.1320  77.7490  13.3120 H 1 RES   0.0000
12999 H  83.3320  77.7490  13.3120 H 1 RES   0.0000
13000 C  82.2320  77.7490  14.7120 C 1 RES   0.0000
13001 H  81.1320  77.7490  14.7120 H 1 RES   0.0000
13002 H  83.3320  77.7490  14.7120 H 1 RES   0.0000
13003 C  82.2320  77.7490  16.1120 C 1 RES   0.0000
13004 H  81.1320  77.7490  16.1120 H 1 RES   0.0000
13005 H  83.3320  77.7490  16.1120 H 1 RES   0.0000
13006 C  82.2320  77.7490  17.5120 C 1 RES   0.0000
13007 H  81.1320  77.7490  17.5120 H 1 RES   0.0000
13008 H  83.3320  77.7490  17.5120 H 1 RES   0.0000
13009 C  82.2320  77.7490  18.9120 C 1 RES   0.0000
13010 H  81.1320  77.7490  18.9120 H 1 RES   0.0000
13011 H  83.3320  77.7490  18.9120 H 1 RES   0.0000
13012 C  82.2320  77.7490  20.3120 C 1 RES   0.0000
13013 H  81.1320  77.7490  20.3120 H 1 RES   0.0000
13014 H  83.3320  77.7490  20.3120 H 1 RES   0.0000
13015 C  82.2320  77.7490  21.7120 C 1 RES   0.0000
13016 H  81.1320  77.7490  21.7120 H 1 RES   0.0000
13017 H  83.3320  77.7490  21.7120 H 1 RES   0.0000
13018 C  82.2320  77.7490  23.1120 C 1 RES   0.0000
13019 H  81.1320  77.7490  23.1120 H 1 RES   0.0000
13020 H  83.3320  77.7490  23.1120 H 1 RES   0.0000
13021 C  82.2320  77.7490  24.5120 C 1 RES   0.0000
13022 H  81.1320  77.7490  24.5120 H 1 RES   0.0000
13023 H  83.3320  77.7490  24.5120 H 1 RES   0.0000
13024 C  82.2320  77.7490  25.9120 C 1 RES   0.0000
13025 H  83.3020  77.7490  25.9120 H 1 RES   0.0000
13026 H  81.8750  77.0960  26.6810 H 1 RES   0.0000
13027 H  81.8750  78.7420  26.0930 H 1 RES   0.0000
13028 Si  82.2320  77.7490  11.9120 Si 1 RES   0.0000
13029 O  83.5393  77.7490  11.9120 O 1 RES   0.0000
13030 H  83.8665  78.4200  11.9436 H 1 RES   0.0000
13031 O  80.7818  77.7490  12.0629 O 1 RES   0.0000
13032 H  80.4140  76.9470  11.9803 H 1 RES   0.0000
13033 C  84.6140  90.1650  13.3120 C 1 RES   0.0000
13034 H  83.5140  90.1650  13.3120 H 1 RES   0.0000
13035 H  85.7140  90.1650  13.3120 H 1 RES   0.0000
13036 C  84.6140  90.1650  14.7120 C 1 RES   0.0000
13037 H  83.5140  90.1650  14.7120 H 1 RES   0.0000
13038 H  85.7140  90.1650  14.7120 H 1 RES   0.0000
13039 C  84.6140  90.1650  16.1120 C 1 RES   0.0000
13040 H  83.5140  90.1650  16.1120 H 1 RES   0.0000
13041 H  85.7140  90.1650  16.1120 H 1 RES   0.0000
13042 C  84.6140  90.1650  17.5120 C 1 RES   0.0000
13043 H  83.5140  90.1650  17.5120 H 1 RES   0.0000
13044 H  85.7140  90.1650  17.5120 H 1 RES   0.0000
13045 C  84.6140  90.1650  18.9120 C 1 RES   0.0000
13046 H  83.5140  90.1650  18.9120 H 1 RES   0.0000
13047 H  85.7140  90.1650  18.9120 H 1 RES   0.0000
13048 C  84.6140  90.1650  20.3120 C 1 RES   0.0000
13049 H  83.5140  90.1650  20.3120 H 1 RES   0.0000
13050 H  85.7140  90.1650  20.3120 H 1 RES   0.0000
13051 C  84.6140  90.1650  21.7120 C 1 RES   0.0000
13052 H  83.5140  90.1650  21.7120 H 1 RES   0.0000
13053 H  85.7140  90.1650  21.7120 H 1 RES   0.0000
13054 C  84.6140  90.1650  23.1120 C 1 RES   0.0000
13055 H  83.5140  90.1650  23.1120 H 1 RES   0.0000
13056 H  85.7140  90.1650  23.1120 H 1 RES   0.0000
13057 C  84.6140  90.1650  24.5120 C 1 RES   0.0000
13058 H  83.5140  90.1650  24.5120 H 1 RES   0.0000
13059 H  85.7140  90.1650  24.5120 H 1 RES   0.0000
13060 C  84.6140  90.1650  25.9120 C 1 RES   0.0000
13061 H  85.6840  90.1650  25.9120 H 1 RES   0.0000
13062 H  84.2570  89.5120  26.6810 H 1 RES   0.0000
13063 H  84.2570  91.1580  26.0930 H 1 RES   0.0000
13064 Si  84.6140  90.1650  11.9120 Si 1 RES   0.0000
13065 O  85.9213  90.1650  11.9120 O 1 RES   0.0000
13066 H  86.2485  90.8360  11.9436 H 1 RES   0.0000
13067 O  83.1638  90.1650  12.0629 O 1 RES   0.0000
13068 H  82.7961  89.3630  11.9803 H 1 RES   0.0000
13069 C  84.6140 106.6700  13.3120 C 1 RES   0.0000
13070 H  83.5140 106.6700  13.3120 H 1 RES   0.0000
13071 H  85.7140 106.6700  13.3120 H 1 RES   0.0000
13072 C  84.6140 106.6700  14.7120 C 1 RES   0.0000
13073 H  83.5140 106.6700  14.7120 H 1 RES   0.0000
13074 H  85.7140 106.6700  14.7120 H 1 RES   0.0000
13075 C  84.6140 106.6700  16.1120 C 1 RES   0.0000
13076 H  83.5140 106.6700  16.1120 H 1 RES   0.0000
13077 H  85.7140 106.6700  16.1120 H 1 RES   0.0000
13078 C  84.6140 106.6700  17.5120 C 1 RES   0.0000
13079 H  83.5140 106.6700  17.5120 H 1 RES   0.0000
13080 H  85.7140 106.6700  17.5120 H 1 RES   0.0000
13081 C  84.6140 106.6700  18.9120 C 1 RES   0.0000
13082 H  83.5140 106.6700  18.9120 H 1 RES   0.0000
13083 H  85.7140 106.6700  18.9120 H 1 RES   0.0000
13084 C  84.6140 106.6700  20.3120 C 1 RES   0.0000
13085 H  83.5140 106.6700  20.3120 H 1 RES   0.0000
13086 H  85.7140 106.6700  20.3120 H 1 RES   0.0000
13087 C  84.6140 106.6700  21.7120 C 1 RES   0.0000
13088 H  83.5140 106.6700  21.7120 H 1 RES   0.0000
13089 H  85.7140 106.6700  21.7120 H 1 RES   0.0000
13090 C  84.6140 106.6700  23.1120 C 1 RES   0.0000
13091 H  83.5140 106.6700  23.1120 H 1 RES   0.0000
13092 H  85.7140 106.6700  23.1120 H 1 RES   0.0000
13093 C  84.6140 106.6700  24.5120 C 1 RES   0.0000
13094 H  83.5140 106.6700  24.5120 H 1 RES   0.0000
13095 H  85.7140 106.6700  24.5120 H 1 RES   0.0000
13096 C  84.6140 106.6700  25.9120 C 1 RES   0.0000
13097 H  85.6840 106.6700  25.9120 H 1 RES   0.0000
13098 H  84.2570 106.0170  26.6810 H 1 RES   0.0000
13099 H  84.2570 107.6630  26.0930 H 1 RES   0.0000
13100 Si  84.6140 106.6700  11.9120 Si 1 RES   0.0000
13101 O  85.9213 106.6700  11.9120 O 1 RES   0.0000
13102 H  86.2485 107.3410  11.9436 H 1 RES   0.0000
13103 O  83.1638 106.6700  12.0629 O 1 RES   0.0000
13104 H  82.7961 105.8680  11.9803 H 1 RES   0.0000
13105 H   1.1910   3.4390  11.9120 H 1 RES   0.0000
13106 H   5.9560   3.4390  11.9120 H 1 RES   0.0000
13107 H   3.5730   7.5650  11.9120 H 1 RES   0.0000
13108 H   8.3380   7.5650  11.9120 H 1 RES   0.0000
13109 H  10.7200   3.4390  11.9120 H 1 RES   0.0000
13110 H  15.4850   3.4390  11.9120 H 1 RES   0.0000
13111 H  13.1030   7.5650  11.9120 H 1 RES   0.0000
13112 H  17.8670   7.5650  11.9120 H 1 RES   0.0000
13113 H  20.2500   3.4390  11.9120 H 1 RES   0.0000
13114 H  25.0140   3.4390  11.9120 H 1 RES   0.0000
13115 H  22.6320   7.5650  11.9120 H 1 RES   0.0000
13116 H  27.3960   7.5650  11.9120 H 1 RES   0.0000
13117 H  29.7790   3.4390  11.9120 H 1 RES   0.0000
13118 H  34.5430   3.4390  11.9120 H 1 RES   0.0000
13119 H  32.1610   7.5650  11.9120 H 1 RES   0.0000
13120 H  36.9250   7.5650  11.9120 H 1 RES   0.0000
13121 H  39.3080   3.4390  11.9120 H 1 RES   0.0000
13122 H  44.0720   3.4390  11.9120 H 1 RES   0.0000
13123 H  41.6900   7.5650  11.9120 H 1 RES   0.0000
13124 H  46.4550   7.5650  11.9120 H 1 RES   0.0000
13125 H   1.1910  11.6910  11.9120 H 1 RES   0.0000
13126 H   5.9560  11.6910  11.9120 H 1 RES   0.0000
13127 H   3.5730  15.8170  11.9120 H 1 RES   0.0000
13128 H   8.3380  15.8170  11.9120 H 1 RES   0.0000
13129 H  10.7200  11.6910  11.9120 H 1 RES   0.0000
13130 H  15.4850  11.6910  11.9120 H 1 RES   0.0000
13131 H  17.8670  15.8170  11.9120 H 1 RES   0.0000
13132 H  20.2500  11.6910  11.9120 H 1 RES   0.0000
13133 H  25.0140  11.6910  11.9120 H 1 RES   0.0000
13134 H  27.3960  15.8170  11.9120 H 1 RES   0.0000
13135 H  29.7790  11.6910  11.9120 H 1 RES   0.0000
13136 H  34.5430  11.6910  11.9120 H 1 RES   0.0000
13137 H  32.1610  15.8170  11.9120 H 1 RES   0.0000
13138 H  39.3080  11.6910  11.9120 H 1 RES   0.0000
13139 H  44.0720  11.6910  11.9120 H 1 RES   0.0000
13140 H  41.6900  15.8170  11.9120 H 1 RES   0.0000
13141 H   1.1910  19.9440  11.9120 H 1 RES   0.0000
13142 H   5.9560  19.9440  11.9120 H 1 RES   0.0000
13143 H   3.5730  24.0700  11.9120 H 1 RES   0.0000
13144 H   8.3380  24.0700  11.9120 H 1 RES   0.0000
13145 H  10.7200  19.9440  11.9120 H 1 RES   0.0000
13146 H  15.4850  19.9440  11.9120 H 1 RES   0.0000
13147 H  13.1030  24.0700  11.9120 H 1 RES   0.0000
13148 H  17.8670  24.0700  11.9120 H 1 RES   0.0000
13149 H  20.2500  19.9440  11.9120 H 1 RES   0.0000
13150 H  25.0140  19.9440  11.9120 H 1 RES   0.0000
13151 H  22.6320  24.0700  11.9120 H 1 RES   0.0000
13152 H  27.3960  24.0700  11.9120 H 1 RES   0.0000
13153 H  29.7790  19.9440  11.9120 H 1 RES   0.0000
13154 H  34.5430  19.9440  11.9120 H 1 RES   0.0000
13155 H  32.1610  24.0700  11.9120 H 1 RES   0.0000
13156 H  36.9250  24.0700  11.9120 H 1 RES   0.0000
13157 H  39.3080  19.9440  11.9120 H 1 RES   0.0000
13158 H  44.0720  19.9440  11.9120 H 1 RES   0.0000
13159 H  41.6900  24.0700  11.9120 H 1 RES   0.0000
13160 H  46.4550  24.0700  11.9120 H 1 RES   0.0000
13161 H   5.9560  28.1960  11.9120 H 1 RES   0.0000
13162 H   3.5730  32.3220  11.9120 H 1 RES   0.0000
13163 H   8.3380  32.3220  11.9120 H 1 RES   0.0000
13164 H  15.4850  28.1960  11.9120 H 1 RES   0.0000
13165 H  13.1030  32.3220  11.9120 H 1 RES   0.0000
13166 H  17.8670  32.3220  11.9120 H 1 RES   0.0000
13167 H  20.2500  28.1960  11.9120 H 1 RES   0.0000
13168 H  22.6320  32.3220  11.9120 H 1 RES   0.0000
13169 H  27.3960  32.3220  11.9120 H 1 RES   0.0000
13170 H  29.7790  28.1960  11.9120 H 1 RES   0.0000
13171 H  32.1610  32.3220  11.9120 H 1 RES   0.0000
13172 H  36.9250  32.3220  11.9120 H 1 RES   0.0000
13173 H  39.3080  28.1960  11.9120 H 1 RES   0.0000
13174 H  44.0720  28.1960  11.9120 H 1 RES   0.0000
13175 H  41.6900  32.3220  11.9120 H 1 RES   0.0000
13176 H   1.1910  36.4490  11.9120 H 1 RES   0.0000
13177 H   5.9560  36.4490  11.9120 H 1 RES   0.0000
13178 H   3.5730  -0.7250  11.9120 H 1 RES   0.0000
13179 H   8.3380  -0.7250  11.9120 H 1 RES   0.0000
13180 H  10.7200  36.4490  11.9120 H 1 RES   0.0000
13181 H  15.4850  36.4490  11.9120 H 1 RES   0.0000
13182 H  17.8670  -0.7250  11.9120 H 1 RES   0.0000
13183 H  20.2500  36.4490  11.9120 H 1 RES   0.0000
13184 H  25.0140  36.4490  11.9120 H 1 RES   0.0000
13185 H  27.3960  -0.7250  11.9120 H 1 RES   0.0000
13186 H  29.7790  36.4490  11.9120 H 1 RES   0.0000
13187 H  34.5430  36.4490  11.9120 H 1 RES   0.0000
13188 H  32.1610  -0.7250  11.9120 H 1 RES   0.0000
13189 H  39.3080  36.4490  11.9120 H 1 RES   0.0000
13190 H  44.0720  36.4490  11.9120 H 1 RES   0.0000
13191 H  41.6900  -0.7250  11.9120 H 1 RES   0.0000
13192 H   5.9560  44.7390  11.9120 H 1 RES   0.0000
13193 H   3.5730  48.8650  11.9120 H 1 RES   0.0000
13194 H   8.3380  48.8650  11.9120 H 1 RES   0.0000
13195 H  15.4850  44.7390  11.9120 H 1 RES   0.0000
13196 H  13.1030  48.8650  11.9120 H 1 RES   0.0000
13197 H  17.8670  48.8650  11.9120 H 1 RES   0.0000
13198 H  20.2500  44.7390  11.9120 H 1 RES   0.0000
13199 H  22.6320  48.8650  11.9120 H 1 RES   0.0000
13200 H  27.3960  48.8650  11.9120 H 1 RES   0.0000
13201 H  29.7790  44.7390  11.9120 H 1 RES   0.0000
13202 H  32.1610  48.8650  11.9120 H 1 RES   0.0000
13203 H  36.9250  48.8650  11.9120 H 1 RES   0.0000
13204 H  39.3080  44.7390  11.9120 H 1 RES   0.0000
13205 H  44.0720  44.7390  11.9120 H 1 RES   0.0000
13206 H  41.6900  48.8650  11.9120 H 1 RES   0.0000
13207 H  46.4550  48.8650  11.9120 H 1 RES   0.0000
13208 H   1.1910  52.9910  11.9120 H 1 RES   0.0000
13209 H   5.9560  52.9910  11.9120 H 1 RES   0.0000
13210 H   3.5730  57.1170  11.9120 H 1 RES   0.0000
13211 H   8.3380  57.1170  11.9120 H 1 RES   0.0000
13212 H  10.7200  52.9910  11.9120 H 1 RES   0.0000
13213 H  15.4850  52.9910  11.9120 H 1 RES   0.0000
13214 H  13.1030  57.1170  11.9120 H 1 RES   0.0000
13215 H  17.8670  57.1170  11.9120 H 1 RES   0.0000
13216 H  20.2500  52.9910  11.9120 H 1 RES   0.0000
13217 H  25.0140  52.9910  11.9120 H 1 RES   0.0000
13218 H  22.6320  57.1170  11.9120 H 1 RES   0.0000
13219 H  27.3960  57.1170  11.9120 H 1 RES   0.0000
13220 H  29.7790  52.9910  11.9120 H 1 RES   0.0000
13221 H  34.5430  52.9910  11.9120 H 1 RES   0.0000
13222 H  32.1610  57.1170  11.9120 H 1 RES   0.0000
13223 H  36.9250  57.1170  11.9120 H 1 RES   0.0000
13224 H  39.3080  52.9910  11.9120 H 1 RES   0.0000
13225 H  44.0720  52.9910  11.9120 H 1 RES   0.0000
13226 H  41.6900  57.1170  11.9120 H 1 RES   0.0000
13227 H  46.4550  57.1170  11.9120 H 1 RES   0.0000
13228 H   5.9560  61.2440  11.9120 H 1 RES   0.0000
13229 H   3.5730  65.3700  11.9120 H 1 RES   0.0000
13230 H   8.3380  65.3700  11.9120 H 1 RES   0.0000
13231 H  15.4850  61.2440  11.9120 H 1 RES   0.0000
13232 H  13.1030  65.3700  11.9120 H 1 RES   0.0000
13233 H  17.8670  65.3700  11.9120 H 1 RES   0.0000
13234 H  20.2500  61.2440  11.9120 H 1 RES   0.0000
13235 H  22.6320  65.3700  11.9120 H 1 RES   0.0000
13236 H  27.3960  65.3700  11.9120 H 1 RES   0.0000
13237 H  29.7790  61.2440  11.9120 H 1 RES   0.0000
13238 H  32.1610  65.3700  11.9120 H 1 RES   0.0000
13239 H  36.9250  65.3700  11.9120 H 1 RES   0.0000
13240 H  39.3080  61.2440  11.9120 H 1 RES   0.0000
13241 H  44.0720  61.2440  11.9120 H 1 RES   0.0000
13242 H  41.6900  65.3700  11.9120 H 1 RES   0.0000
13243 H  46.4550  65.3700  11.9120 H 1 RES   0.0000
13244 H   1.1910  69.4960  11.9120 H 1 RES   0.0000
13245 H   5.9560  69.4960  11.9120 H 1 RES   0.0000
13246 H   3.5730  73.6220  11.9120 H 1 RES   0.0000
13247 H   8.3380  73.6220  11.9120 H 1 RES   0.0000
13248 H  10.7200  69.4960  11.9120 H 1 RES   0.0000
13249 H  15.4850  69.4960  11.9120 H 1 RES   0.0000
13250 H  13.1030  73.6220  11.9120 H 1 RES   0.0000
13251 H  17.8670  73.6220  11.9120 H 1 RES   0.0000
13252 H  20.2500  69.4960  11.9120 H 1 RES   0.0000
13253 H  25.0140  69.4960  11.9120 H 1 RES   0.0000
13254 H  27.3960  73.6220  11.9120 H 1 RES   0.0000
13255 H  29.7790  69.4960  11.9120 H 1 RES   0.0000
13256 H  34.5430  69.4960  11.9120 H 1 RES   0.0000
13257 H  32.1610  73.6220  11.9120 H 1 RES   0.0000
13258 H  36.9250  73.6220  11.9120 H 1 RES   0.0000
13259 H  39.3080  69.4960  11.9120 H 1 RES   0.0000
13260 H  44.0720  69.4960  11.9120 H 1 RES   0.0000
13261 H  41.6900  73.6220  11.9120 H 1 RES   0.0000
13262 H   5.9560  77.7490  11.9120 H 1 RES   0.0000
13263 H   3.5730  40.5750  11.9120 H 1 RES   0.0000
13264 H   8.3380  40.5750  11.9120 H 1 RES   0.0000
13265 H  15.4850  77.7490  11.9120 H 1 RES   0.0000
13266 H  13.1030  40.5750  11.9120 H 1 RES   0.0000
13267 H  17.8670  40.5750  11.9120 H 1 RES   0.0000
13268 H  20.2500  77.7490  11.9120 H 1 RES   0.0000
13269 H  25.0140  77.7490  11.9120 H 1 RES   0.0000
13270 H  22.6320  40.5750  11.9120 H 1 RES   0.0000
13271 H  27.3960  40.5750  11.9120 H 1 RES   0.0000
13272 H  29.7790  77.7490  11.9120 H 1 RES   0.0000
13273 H  32.1610  40.5750  11.9120 H 1 RES   0.0000
13274 H  36.9250  40.5750  11.9120 H 1 RES   0.0000
13275 H  39.3080  77.7490  11.9120 H 1 RES   0.0000
13276 H  44.0720  77.7490  11.9120 H 1 RES   0.0000
13277 H  41.6900  40.5750  11.9120 H 1 RES   0.0000
13278 H  46.4550  40.5750  11.9120 H 1 RES   0.0000
13279 H   1.1910  86.0390  11.9120 H 1 RES   0.0000
13280 H   5.9560  86.0390  11.9120 H 1 RES   0.0000
13281 H   3.5730  90.1650  11.9120 H 1 RES   0.0000
13282 H   8.3380  90.1650  11.9120 H 1 RES   0.0000
13283 H  10.7200  86.0390  11.9120 H 1 RES   0.0000
13284 H  15.4850  86.0390  11.9120 H 1 RES   0.0000
13285 H  17.8670  90.1650  11.9120 H 1 RES   0.0000
13286 H  20.2500  86.0390  11.9120 H 1 RES   0.0000
13287 H  25.0140  86.0390  11.9120 H 1 RES   0.0000
13288 H  27.3960  90.1650  11.9120 H 1 RES   0.0000
13289 H  29.7790  86.0390  11.9120 H 1 RES   0.0000
13290 H  34.5430  86.0390  11.9120 H 1 RES   0.0000
13291 H  32.1610  90.1650  11.9120 H 1 RES   0.0000
13292 H  39.3080  86.0390  11.9120 H 1 RES   0.0000
13293 H  44.0720  86.0390  11.9120 H 1 RES   0.0000
13294 H  41.6900  90.1650  11.9120 H 1 RES   0.0000
13295 H   1.1910  94.2910  11.9120 H 1 RES   0.0000
13296 H   5.9560  94.2910  11.9120 H 1 RES   0.0000
13297 H   3.5730  98.4170  11.9120 H 1 RES   0.0000
13298 H   8.3380  98.4170  11.9120 H 1 RES   0.0000
13299 H  10.7200  94.2910  11.9120 H 1 RES   0.0000
13300 H  15.4850  94.2910  11.9120 H 1 RES   0.0000
13301 H  13.1030  98.4170  11.9120 H 1 RES   0.0000
13302 H  17.8670  98.4170  11.9120 H 1 RES   0.0000
13303 H  20.2500  94.2910  11.9120 H 1 RES   0.0000
13304 H  25.0140  94.2910  11.9120 H 1 RES   0.0000
13305 H  22.6320  98.4170  11.9120 H 1 RES   0.0000
13306 H  27.3960  98.4170  11.9120 H 1 RES   0.0000
13307 H  29.7790  94.2910  11.9120 H 1 RES   0.0000
13308 H  34.5430  94.2910  11.9120 H 1 RES   0.0000
13309 H  32.1610  98.4170  11.9120 H 1 RES   0.0000
13310 H  36.9250  98.4170  11.9120 H 1 RES   0.0000
13311 H  39.3080  94.2910  11.9120 H 1 RES   0.0000
13312 H  44.0720  94.2910  11.9120 H 1 RES   0.0000
13313 H  41.6900  98.4170  11.9120 H 1 RES   0.0000
13314 H  46.4550  98.4170  11.9120 H 1 RES   0.0000
13315 H   1.1910 102.5440  11.9120 H 1 RES   0.0000
13316 H   5.9560 102.5440  11.9120 H 1 RES   0.0000
13317 H   3.5730 106.6700  11.9120 H 1 RES   0.0000
13318 H   8.3380 106.6700  11.9120 H 1 RES   0.0000
13319 H  10.7200 102.5440  11.9120 H 1 RES   0.0000
13320 H  15.4850 102.5440  11.9120 H 1 RES   0.0000
13321 H  17.8670 106.6700  11.9120 H 1 RES   0.0000
13322 H  20.2500 102.5440  11.9120 H 1 RES   0.0000
13323 H  25.0140 102.5440  11.9120 H 1 RES   0.0000
13324 H  27.3960 106.6700  11.9120 H 1 RES   0.0000
13325 H  29.7790 102.5440  11.9120 H 1 RES   0.0000
13326 H  34.5430 102.5440  11.9120 H 1 RES   0.0000
13327 H  32.1610 106.6700  11.9120 H 1 RES   0.0000
13328 H  39.3080 102.5440  11.9120 H 1 RES   0.0000
13329 H  44.0720 102.5440  11.9120 H 1 RES   0.0000
13330 H  41.6900 106.6700  11.9120 H 1 RES   0.0000
13331 H   1.1910 110.7960  11.9120 H 1 RES   0.0000
13332 H   5.9560 110.7960  11.9120 H 1 RES   0.0000
13333 H   3.5730 114.9220  11.9120 H 1 RES   0.0000
13334 H   8.3380 114.9220  11.9120 H 1 RES   0.0000
13335 H  10.7200 110.7960  11.9120 H 1 RES   0.0000
13336 H  15.4850 110.7960  11.9120 H 1 RES   0.0000
13337 H  13.1030 114.9220  11.9120 H 1 RES   0.0000
13338 H  17.8670 114.9220  11.9120 H 1 RES   0.0000
13339 H  20.2500 110.7960  11.9120 H 1 RES   0.0000
13340 H  25.0140 110.7960  11.9120 H 1 RES   0.0000
13341 H  22.6320 114.9220  11.9120 H 1 RES   0.0000
13342 H  27.3960 114.9220  11.9120 H 1 RES   0.0000
13343 H  29.7790 110.7960  11.9120 H 1 RES   0.0000
13344 H  34.5430 110.7960  11.9120 H 1 RES   0.0000
13345 H  32.1610 114.9220  11.9120 H 1 RES   0.0000
13346 H  36.9250 114.9220  11.9120 H 1 RES   0.0000
13347 H  39.3080 110.7960  11.9120 H 1 RES   0.0000
13348 H  44.0720 110.7960  11.9120 H 1 RES   0.0000
13349 H  41.6900 114.9220  11.9120 H 1 RES   0.0000
13350 H  46.4550 114.9220  11.9120 H 1 RES   0.0000
13351 H   1.1910 119.0490  11.9120 H 1 RES   0.0000
13352 H   5.9560 119.0490  11.9120 H 1 RES   0.0000
13353 H   3.5730  81.8750  11.9120 H 1 RES   0.0000
13354 H   8.3380  81.8750  11.9120 H 1 RES   0.0000
13355 H  10.7200 119.0490  11.9120 H 1 RES   0.0000
13356 H  15.4850 119.0490  11.9120 H 1 RES   0.0000
13357 H  13.1030  81.8750  11.9120 H 1 RES   0.0000
13358 H  17.8670  81.8750  11.9120 H 1 RES   0.0000
13359 H  20.2500 119.0490  11.9120 H 1 RES   0.0000
13360 H  25.0140 119.0490  11.9120 H 1 RES   0.0000
13361 H  22.6320  81.8750  11.9120 H 1 RES   0.0000
13362 H  27.3960  81.8750  11.9120 H 1 RES   0.0000
13363 H  29.7790 119.0490  11.9120 H 1 RES   0.0000
13364 H  34.5430 119.0490  11.9120 H 1 RES   0.0000
13365 H  32.1610  81.8750  11.9120 H 1 RES   0.0000
13366 H  36.9250  81.8750  11.9120 H 1 RES   0.0000
13367 H  39.3080 119.0490  11.9120 H 1 RES   0.0000
13368 H  44.0720 119.0490  11.9120 H 1 RES   0.0000
13369 H  41.6900  81.8750  11.9120 H 1 RES   0.0000
13370 H  46.4550  81.8750  11.9120 H 1 RES   0.0000
13371 H  48.8800   3.4390  11.9120 H 1 RES   0.0000
13372 H  53.6450   3.4390  11.9120 H 1 RES   0.0000
13373 H  51.2620   7.5650  11.9120 H 1 RES   0.0000
13374 H  56.0270   7.5650  11.9120 H 1 RES   0.0000
13375 H  58.4090   3.4390  11.9120 H 1 RES   0.0000
13376 H  63.1740   3.4390  11.9120 H 1 RES   0.0000
13377 H  60.7920   7.5650  11.9120 H 1 RES   0.0000
13378 H  65.5560   7.5650  11.9120 H 1 RES   0.0000
13379 H  67.9390   3.4390  11.9120 H 1 RES   0.0000
13380 H  72.7030   3.4390  11.9120 H 1 RES   0.0000
13381 H  70.3210   7.5650  11.9120 H 1 RES   0.0000
13382 H  75.0850   7.5650  11.9120 H 1 RES   0.0000
13383 H  77.4680   3.4390  11.9120 H 1 RES   0.0000
13384 H  82.2320   3.4390  11.9120 H 1 RES   0.0000
13385 H  79.8500   7.5650  11.9120 H 1 RES   0.0000
13386 H  84.6140   7.5650  11.9120 H 1 RES   0.0000
13387 H  86.9970   3.4390  11.9120 H 1 RES   0.0000
13388 H  91.7610   3.4390  11.9120 H 1 RES   0.0000
13389 H  89.3790   7.5650  11.9120 H 1 RES   0.0000
13390 H  94.1440   7.5650  11.9120 H 1 RES   0.0000
13391 H  48.8800  11.6910  11.9120 H 1 RES   0.0000
13392 H  53.6450  11.6910  11.9120 H 1 RES   0.0000
13393 H  51.2620  15.8170  11.9120 H 1 RES   0.0000
13394 H  56.0270  15.8170  11.9120 H 1 RES   0.0000
13395 H  58.4090  11.6910  11.9120 H 1 RES   0.0000
13396 H  63.1740  11.6910  11.9120 H 1 RES   0.0000
13397 H  65.5560  15.8170  11.9120 H 1 RES   0.0000
13398 H  67.9390  11.6910  11.9120 H 1 RES   0.0000
13399 H  72.7030  11.6910  11.9120 H 1 RES   0.0000
13400 H  75.0850  15.8170  11.9120 H 1 RES   0.0000
13401 H  77.4680  11.6910  11.9120 H 1 RES   0.0000
13402 H  82.2320  11.6910  11.9120 H 1 RES   0.0000
13403 H  79.8500  15.8170  11.9120 H 1 RES   0.0000
13404 H  86.9970  11.6910  11.9120 H 1 RES   0.0000
13405 H  91.7610  11.6910  11.9120 H 1 RES   0.0000
13406 H  89.3790  15.8170  11.9120 H 1 RES   0.0000
13407 H  48.8800  19.9440  11.9120 H 1 RES   0.0000
13408 H  53.6450  19.9440  11.9120 H 1 RES   0.0000
13409 H  51.2620  24.0700  11.9120 H 1 RES   0.0000
13410 H  56.0270  24.0700  11.9120 H 1 RES   0.0000
13411 H  58.4090  19.9440  11.9120 H 1 RES   0.0000
13412 H  63.1740  19.9440  11.9120 H 1 RES   0.0000
13413 H  60.7920  24.0700  11.9120 H 1 RES   0.0000
13414 H  65.5560  24.0700  11.9120 H 1 RES   0.0000
13415 H  67.9390  19.9440  11.9120 H 1 RES   0.0000
13416 H  72.7030  19.9440  11.9120 H 1 RES   0.0000
13417 H  70.3210  24.0700  11.9120 H 1 RES   0.0000
13418 H  75.0850  24.0700  11.9120 H 1 RES   0.0000
13419 H  77.4680  19.9440  11.9120 H 1 RES   0.0000
13420 H  82.2320  19.9440  11.9120 H 1 RES   0.0000
13421 H  79.8500  24.0700  11.9120 H 1 RES   0.0000
13422 H  84.6140  24.0700  11.9120 H 1 RES   0.0000
13423 H  86.9970  19.9440  11.9120 H 1 RES   0.0000
13424 H  91.7610  19.9440  11.9120 H 1 RES   0.0000
13425 H  89.3790  24.0700  11.9120 H 1 RES   0.0000
13426 H  94.1440  24.0700  11.9120 H 1 RES   0.0000
13427 H  48.8800  28.1960  11.9120 H 1 RES   0.0000
13428 H  53.6450  28.1960  11.9120 H 1 RES   0.0000
13429 H  51.2620  32.3220  11.9120 H 1 RES   0.0000
13430 H  56.0270  32.3220  11.9120 H 1 RES   0.0000
13431 H  63.1740  28.1960  11.9120 H 1 RES   0.0000
13432 H  60.7920  32.3220  11.9120 H 1 RES   0.0000
13433 H  65.5560  32.3220  11.9120 H 1 RES   0.0000
13434 H  67.9390  28.1960  11.9120 H 1 RES   0.0000
13435 H  72.7030  28.1960  11.9120 H 1 RES   0.0000
13436 H  75.0850  32.3220  11.9120 H 1 RES   0.0000
13437 H  77.4680  28.1960  11.9120 H 1 RES   0.0000
13438 H  79.8500  32.3220  11.9120 H 1 RES   0.0000
13439 H  84.6140  32.3220  11.9120 H 1 RES   0.0000
13440 H  86.9970  28.1960  11.9120 H 1 RES   0.0000
13441 H  91.7610  28.1960  11.9120 H 1 RES   0.0000
13442 H  89.3790  32.3220  11.9120 H 1 RES   0.0000
13443 H  94.1440  32.3220  11.9120 H 1 RES   0.0000
13444 H  48.8800  36.4490  11.9120 H 1 RES   0.0000
13445 H  53.6450  36.4490  11.9120 H 1 RES   0.0000
13446 H  51.2620  -0.7250  11.9120 H 1 RES   0.0000
13447 H  56.0270  -0.7250  11.9120 H 1 RES   0.0000
13448 H  58.4090  36.4490  11.9120 H 1 RES   0.0000
13449 H  63.1740  36.4490  11.9120 H 1 RES   0.0000
13450 H  65.5560  -0.7250  11.9120 H 1 RES   0.0000
13451 H  67.9390  36.4490  11.9120 H 1 RES   0.0000
13452 H  72.7030  36.4490  11.9120 H 1 RES   0.0000
13453 H  75.0850  -0.7250  11.9120 H 1 RES   0.0000
13454 H  77.4680  36.4490  11.9120 H 1 RES   0.0000
13455 H  82.2320  36.4490  11.9120 H 1 RES   0.0000
13456 H  79.8500  -0.7250  11.9120 H 1 RES   0.0000
13457 H  86.9970  36.4490  11.9120 H 1 RES   0.0000
13458 H  91.7610  36.4490  11.9120 H 1 RES   0.0000
13459 H  89.3790  -0.7250  11.9120 H 1 RES   0.0000
13460 H  53.6450  44.7390  11.9120 H 1 RES   0.0000
13461 H  51.2620  48.8650  11.9120 H 1 RES   0.0000
13462 H  56.0270  48.8650  11.9120 H 1 RES   0.0000
13463 H  63.1740  44.7390  11.9120 H 1 RES   0.0000
13464 H  60.7920  48.8650  11.9120 H 1 RES   0.0000
13465 H  65.5560  48.8650  11.9120 H 1 RES   0.0000
13466 H  67.9390  44.7390  11.9120 H 1 RES   0.0000
13467 H  70.3210  48.8650  11.9120 H 1 RES   0.0000
13468 H  75.0850  48.8650  11.9120 H 1 RES   0.0000
13469 H  77.4680  44.7390  11.9120 H 1 RES   0.0000
13470 H  79.8500  48.8650  11.9120 H 1 RES   0.0000
13471 H  84.6140  48.8650  11.9120 H 1 RES   0.0000
13472 H  86.9970  44.7390  11.9120 H 1 RES   0.0000
13473 H  91.7610  44.7390  11.9120 H 1 RES   0.0000
13474 H  89.3790  48.8650  11.9120 H 1 RES   0.0000
13475 H  94.1440  48.8650  11.9120 H 1 RES   0.0000
13476 H  48.8800  52.9910  11.9120 H 1 RES   0.0000
13477 H  53.6450  52.9910  11.9120 H 1 RES   0.0000
13478 H  51.2620  57.1170  11.9120 H 1 RES   0.0000
13479 H  56.0270  57.1170  11.9120 H 1 RES   0.0000
13480 H  58.4090  52.9910  11.9120 H 1 RES   0.0000
13481 H  63.1740  52.9910  11.9120 H 1 RES   0.0000
13482 H  60.7920  57.1170  11.9120 H 1 RES   0.0000
13483 H  65.5560  57.1170  11.9120 H 1 RES   0.0000
13484 H  67.9390  52.9910  11.9120 H 1 RES   0.0000
13485 H  72.7030  52.9910  11.9120 H 1 RES   0.0000
13486 H  70.3210  57.1170  11.9120 H 1 RES   0.0000
13487 H  75.0850  57.1170  11.9120 H 1 RES   0.0000
13488 H  77.4680  52.9910  11.9120 H 1 RES   0.0000
13489 H  82.2320  52.9910  11.9120 H 1 RES   0.0000
13490 H  79.8500  57.1170  11.9120 H 1 RES   0.0000
13491 H  84.6140  57.1170  11.9120 H 1 RES   0.0000
13492 H  86.9970  52.9910  11.9120 H 1 RES   0.0000
13493 H  91.7610  52.9910  11.9120 H 1 RES   0.0000
13494 H  89.3790  57.1170  11.9120 H 1 RES   0.0000
13495 H  94.1440  57.1170  11.9120 H 1 RES   0.0000
13496 H  53.6450  61.2440  11.9120 H 1 RES   0.0000
13497 H  51.2620  65.3700  11.9120 H 1 RES   0.0000
13498 H  56.0270  65.3700  11.9120 H 1 RES   0.0000
13499 H  63.1740  61.2440  11.9120 H 1 RES   0.0000
13500 H  60.7920  65.3700  11.9120 H 1 RES   0.0000
13501 H  65.5560  65.3700  11.9120 H 1 RES   0.0000
13502 H  67.9390  61.2440  11.9120 H 1 RES   0.0000
13503 H  70.3210  65.3700  11.9120 H 1 RES   0.0000
13504 H  75.0850  65.3700  11.9120 H 1 RES   0.0000
13505 H  77.4680  61.2440  11.9120 H 1 RES   0.0000
13506 H  79.8500  65.3700  11.9120 H 1 RES   0.0000
13507 H  84.6140  65.3700  11.9120 H 1 RES   0.0000
13508 H  86.9970  61.2440  11.9120 H 1 RES   0.0000
13509 H  91.7610  61.2440  11.9120 H 1 RES   0.0000
13510 H  89.3790  65.3700  11.9120 H 1 RES   0.0000
13511 H  94.1440  65.3700  11.9120 H 1 RES   0.0000
13512 H  48.8800  69.4960  11.9120 H 1 RES   0.0000
13513 H  53.6450  69.4960  11.9120 H 1 RES   0.0000
13514 H  51.2620  73.6220  11.9120 H 1 RES   0.0000
13515 H  56.0270  73.6220  11.9120 H 1 RES   0.0000
13516 H  58.4090  69.4960  11.9120 H 1 RES   0.0000
13517 H  63.1740  69.4960  11.9120 H 1 RES   0.0000
13518 H  60.7920  73.6220  11.9120 H 1 RES   0.0000
13519 H  65.5560  73.6220  11.9120 H 1 RES   0.0000
13520 H  67.9390  69.4960  11.9120 H 1 RES   0.0000
13521 H  72.7030  69.4960  11.9120 H 1 RES   0.0000
13522 H  75.0850  73.6220  11.9120 H 1 RES   0.0000
13523 H  77.4680  69.4960  11.9120 H 1 RES   0.0000
13524 H  82.2320  69.4960  11.9120 H 1 RES   0.0000
13525 H  79.8500  73.6220  11.9120 H 1 RES   0.0000
13526 H  84.6140  73.6220  11.9120 H 1 RES   0.0000
13527 H  86.9970  69.4960  11.9120 H 1 RES   0.0000
13528 H  91.7610  69.4960  11.9120 H 1 RES   0.0000
13529 H  89.3790  73.6220  11.9120 H 1 RES   0.0000
13530 H  94.1440  73.6220  11.9120 H 1 RES   0.0000
13531 H  48.8800  77.7490  11.9120 H 1 RES   0.0000
13532 H  53.6450  77.7490  11.9120 H 1 RES   0.0000
13533 H  51.2620  40.5750  11.9120 H 1 RES   0.0000
13534 H  56.0270  40.5750  11.9120 H 1 RES   0.0000
13535 H  63.1740  77.7490  11.9120 H 1 RES   0.0000
13536 H  60.7920  40.5750  11.9120 H 1 RES   0.0000
13537 H  65.5560  40.5750  11.9120 H 1 RES   0.0000
13538 H  67.9390  77.7490  11.9120 H 1 RES   0.0000
13539 H  72.7030  77.7490  11.9120 H 1 RES   0.0000
13540 H  70.3210  40.5750  11.9120 H 1 RES   0.0000
13541 H  75.0850  40.5750  11.9120 H 1 RES   0.0000
13542 H  77.4680  77.7490  11.9120 H 1 RES   0.0000
13543 H  79.8500  40.5750  11.9120 H 1 RES   0.0000
13544 H  84.6140  40.5750  11.9120 H 1 RES   0.0000
13545 H  86.9970  77.7490  11.9120 H 1 RES   0.0000
13546 H  91.7610  77.7490  11.9120 H 1 RES   0.0000
13547 H  89.3790  40.5750  11.9120 H 1 RES   0.0000
13548 H  94.1440  40.5750  11.9120 H 1 RES   0.0000
13549 H  48.8800  86.0390  11.9120 H 1 RES   0.0000
13550 H  53.6450  86.0390  11.9120 H 1 RES   0.0000
13551 H  51.2620  90.1650  11.9120 H 1 RES   0.0000
13552 H  56.0270  90.1650  11.9120 H 1 RES   0.0000
13553 H  58.4090  86.0390  11.9120 H 1 RES   0.0000
13554 H  63.1740  86.0390  11.9120 H 1 RES   0.0000
13555 H  65.5560  90.1650  11.9120 H 1 RES   0.0000
13556 H  67.9390  86.0390  11.9120 H 1 RES   0.0000
13557 H  72.7030  86.0390  11.9120 H 1 RES   0.0000
13558 H  75.0850  90.1650  11.9120 H 1 RES   0.0000
13559 H  77.4680  86.0390  11.9120 H 1 RES   0.0000
13560 H  82.2320  86.0390  11.9120 H 1 RES   0.0000
13561 H  79.8500  90.1650  11.9120 H 1 RES   0.0000
13562 H  86.9970  86.0390  11.9120 H 1 RES   0.0000
13563 H  91.7610  86.0390  11.9120 H 1 RES   0.0000
13564 H  89.3790  90.1650  11.9120 H 1 RES   0.0000
13565 H  48.8800  94.2910  11.9120 H 1 RES   0.0000
13566 H  53.6450  94.2910  11.9120 H 1 RES   0.0000
13567 H  51.2620  98.4170  11.9120 H 1 RES   0.0000
13568 H  56.0270  98.4170  11.9120 H 1 RES   0.0000
13569 H  58.4090  94.2910  11.9120 H 1 RES   0.0000
13570 H  63.1740  94.2910  11.9120 H 1 RES   0.0000
13571 H  60.7920  98.4170  11.9120 H 1 RES   0.0000
13572 H  65.5560  98.4170  11.9120 H 1 RES   0.0000
13573 H  67.9390  94.2910  11.9120 H 1 RES   0.0000
13574 H  72.7030  94.2910  11.9120 H 1 RES   0.0000
13575 H  70.3210  98.4170  11.9120 H 1 RES   0.0000
13576 H  75.0850  98.4170  11.9120 H 1 RES   0.0000
13577 H  77.4680  94.2910  11.9120 H 1 RES   0.0000
13578 H  82.2320  94.2910  11.9120 H 1 RES   0.0000
13579 H  79.8500  98.4170  11.9120 H 1 RES   0.0000
13580 H  84.6140  98.4170  11.9120 H 1 RES   0.0000
13581 H  86.9970  94.2910  11.9120 H 1 RES   0.0000
13582 H  91.7610  94.2910  11.9120 H 1 RES   0.0000
13583 H  89.3790  98.4170  11.9120 H 1 RES   0.0000
13584 H  94.1440  98.4170  11.9120 H 1 RES   0.0000
13585 H  48.8800 102.5440  11.9120 H 1 RES   0.0000
13586 H  53.6450 102.5440  11.9120 H 1 RES   0.0000
13587 H  51.2620 106.6700  11.9120 H 1 RES   0.0000
13588 H  56.0270 106.6700  11.9120 H 1 RES   0.0000
13589 H  58.4090 102.5440  11.9120 H 1 RES   0.0000
13590 H  63.1740 102.5440  11.9120 H 1 RES   0.0000
13591 H  65.5560 106.6700  11.9120 H 1 RES   0.0000
13592 H  67.9390 102.5440  11.9120 H 1 RES   0.0000
13593 H  72.7030 102.5440  11.9120 H 1 RES   0.0000
13594 H  75.0850 106.6700  11.9120 H 1 RES   0.0000
13595 H  77.4680 102.5440  11.9120 H 1 RES   0.0000
13596 H  82.2320 102.5440  11.9120 H 1 RES   0.0000
13597 H  79.8500 106.6700  11.9120 H 1 RES   0.0000
13598 H  86.9970 102.5440  11.9120 H 1 RES   0.0000
13599 H  91.7610 102.5440  11.9120 H 1 RES   0.0000
13600 H  89.3790 106.6700  11.9120 H 1 RES   0.0000
13601 H  48.8800 110.7960  11.9120 H 1 RES   0.0000
13602 H  53.6450 110.7960  11.9120 H 1 RES   0.0000
13603 H  51.2620 114.9220  11.9120 H 1 RES   0.0000
13604 H  56.0270 114.9220  11.9120 H 1 RES   0.0000
13605 H  58.4090 110.7960  11.9120 H 1 RES   0.0000
13606 H  63.1740 110.7960  11.9120 H 1 RES   0.0000
13607 H  60.7920 114.9220  11.9120 H 1 RES   0.0000
13608 H  65.5560 114.9220  11.9120 H 1 RES   0.0000
13609 H  67.9390 110.7960  11.9120 H 1 RES   0.0000
13610 H  72.7030 110.7960  11.9120 H 1 RES   0.0000
13611 H  70.3210 114.9220  11.9120 H 1 RES   0.0000
13612 H  75.0850 114.9220  11.9120 H 1 RES   0.0000
13613 H  77.4680 110.7960  11.9120 H 1 RES   0.0000
13614 H  82.2320 110.7960  11.9120 H 1 RES   0.0000
13615 H  79.8500 114.9220  11.9120 H 1 RES   0.0000
13616 H  84.6140 114.9220  11.9120 H 1 RES   0.0000
13617 H  86.9970 110.7960  11.9120 H 1 RES   0.0000
13618 H  91.7610 110.7960  11.9120 H 1 RES   0.0000
13619 H  89.3790 114.9220  11.9120 H 1 RES   0.0000
13620 H  94.1440 114.9220  11.9120 H 1 RES   0.0000
13621 H  48.8800 119.0490  11.9120 H 1 RES   0.0000
13622 H  53.6450 119.0490  11.9120 H 1 RES   0.0000
13623 H  51.2620  81.8750  11.9120 H 1 RES   0.0000
13624 H  56.0270  81.8750  11.9120 H 1 RES   0.0000
13625 H  58.4090 119.0490  11.9120 H 1 RES   0.0000
13626 H  63.1740 119.0490  11.9120 H 1 RES   0.0000
13627 H  60.7920  81.8750  11.9120 H 1 RES   0.0000
13628 H  65.5560  81.8750  11.9120 H 1 RES   0.0000
13629 H  67.9390 119.0490  11.9120 H 1 RES   0.0000
13630 H  72.7030 119.0490  11.9120 H 1 RES   0.0000
13631 H  70.3210  81.8750  11.9120 H 1 RES   0.0000
13632 H  75.0850  81.8750  11.9120 H 1 RES   0.0000
13633 H  77.4680 119.0490  11.9120 H 1 RES   0.0000
13634 H  82.2320 119.0490  11.9120 H 1 RES   0.0000
13635 H  79.8500  81.8750  11.9120 H 1 RES   0.0000
13636 H  84.6140  81.8750  11.9120 H 1 RES   0.0000
13637 H  86.9970 119.0490  11.9120 H 1 RES   0.0000
13638 H  91.7610 119.0490  11.9120 H 1 RES   0.0000
13639 H  89.3790  81.8750  11.9120 H 1 RES   0.0000
13640 H  94.1440  81.8750  11.9120 H 1 RES   0.0000
@<TRIPOS>BOND
1 1 10 1
2 1 13 1
3 2 5 1
4 2 6 1
5 2 3 1
6 3 4 1
7 4 42 1
8 4 7 1
9 4 347 1
10 5 1480 1
11 6 1786 1
12 7 8 1
13 8 9 1
14 8 48 1
15 8 353 1
16 9 10 1
17 10 11 1
18 10 12 1
19 11 1484 1
20 12 1790 1
21 13 14 1
22 13 15 1
23 13 16 1
24 14 1493 1
25 15 1799 1
26 16 17 1
27 17 51 1
28 17 18 1
29 17 356 1
30 19 28 1
31 19 31 1
32 20 24 1
33 20 23 1
34 20 21 1
35 21 22 1
36 22 41 1
37 22 25 1
38 22 60 1
39 23 1498 1
40 24 1480 1
41 25 26 1
42 26 27 1
43 26 47 1
44 26 66 1
45 27 28 1
46 28 30 1
47 28 29 1
48 29 1502 1
49 30 1484 1
50 31 33 1
51 31 32 1
52 31 34 1
53 32 1511 1
54 33 1493 1
55 34 35 1
56 35 50 1
57 35 69 1
58 35 36 1
59 37 46 1
60 37 49 1
61 38 39 1
62 38 41 1
63 38 42 1
64 39 40 1
65 40 43 1
66 40 384 1
67 40 365 1
68 43 44 1
69 44 45 1
70 44 390 1
71 44 371 1
72 45 46 1
73 46 47 1
74 46 48 1
75 49 52 1
76 49 50 1
77 49 51 1
78 52 53 1
79 53 393 1
80 53 374 1
81 53 54 1
82 55 64 1
83 55 67 1
84 56 59 1
85 56 57 1
86 56 60 1
87 57 58 1
88 58 438 1
89 58 61 1
90 58 383 1
91 59 76 1
92 61 62 1
93 62 444 1
94 62 63 1
95 62 389 1
96 63 64 1
97 64 65 1
98 64 66 1
99 65 80 1
100 67 68 1
101 67 70 1
102 67 69 1
103 68 89 1
104 70 71 1
105 71 447 1
106 71 392 1
107 71 72 1
108 73 82 1
109 73 85 1
110 74 78 1
111 74 75 1
112 74 77 1
113 75 76 1
114 76 79 1
115 76 114 1
116 77 1552 1
117 78 1498 1
118 79 80 1
119 80 81 1
120 80 120 1
121 81 82 1
122 82 84 1
123 82 83 1
124 83 1556 1
125 84 1502 1
126 85 87 1
127 85 88 1
128 85 86 1
129 86 1565 1
130 87 1511 1
131 88 89 1
132 89 90 1
133 89 123 1
134 91 100 1
135 91 103 1
136 92 96 1
137 92 93 1
138 92 95 1
139 93 94 1
140 94 113 1
141 94 97 1
142 94 132 1
143 95 1570 1
144 96 1552 1
145 97 98 1
146 98 119 1
147 98 99 1
148 98 138 1
149 99 100 1
150 100 102 1
151 100 101 1
152 101 1574 1
153 102 1556 1
154 103 105 1
155 103 106 1
156 103 104 1
157 104 1583 1
158 105 1565 1
159 106 107 1
160 107 122 1
161 107 108 1
162 107 141 1
163 109 118 1
164 109 121 1
165 110 114 1
166 110 111 1
167 110 113 1
168 111 112 1
169 112 437 1
170 112 115 1
171 112 456 1
172 115 116 1
173 116 443 1
174 116 117 1
175 116 462 1
176 117 118 1
177 118 120 1
178 118 119 1
179 121 123 1
180 121 124 1
181 121 122 1
182 124 125 1
183 125 446 1
184 125 126 1
185 125 465 1
186 127 136 1
187 127 139 1
188 128 131 1
189 128 132 1
190 128 129 1
191 129 130 1
192 130 455 1
193 130 510 1
194 130 133 1
195 131 148 1
196 133 134 1
197 134 461 1
198 134 516 1
199 134 135 1
200 135 136 1
201 136 137 1
202 136 138 1
203 137 152 1
204 139 140 1
205 139 141 1
206 139 142 1
207 140 161 1
208 142 143 1
209 143 464 1
210 143 519 1
211 143 144 1
212 145 154 1
213 145 157 1
214 146 149 1
215 146 147 1
216 146 150 1
217 147 148 1
218 148 186 1
219 148 151 1
220 149 1624 1
221 150 1570 1
222 151 152 1
223 152 192 1
224 152 153 1
225 153 154 1
226 154 155 1
227 154 156 1
228 155 1628 1
229 156 1574 1
230 157 158 1
231 157 160 1
232 157 159 1
233 158 1637 1
234 159 1583 1
235 160 161 1
236 161 195 1
237 161 162 1
238 163 172 1
239 163 175 1
240 164 167 1
241 164 165 1
242 164 168 1
243 165 166 1
244 166 204 1
245 166 169 1
246 166 185 1
247 167 1642 1
248 168 1624 1
249 169 170 1
250 170 210 1
251 170 171 1
252 170 191 1
253 171 172 1
254 172 173 1
255 172 174 1
256 173 1646 1
257 174 1628 1
258 175 176 1
259 175 178 1
260 175 177 1
261 176 1655 1
262 177 1637 1
263 178 179 1
264 179 213 1
265 179 180 1
266 179 194 1
267 181 190 1
268 181 193 1
269 182 185 1
270 182 183 1
271 182 186 1
272 183 184 1
273 184 528 1
274 184 187 1
275 184 509 1
276 187 188 1
277 188 534 1
278 188 189 1
279 188 515 1
280 189 190 1
281 190 191 1
282 190 192 1
283 193 194 1
284 193 196 1
285 193 195 1
286 196 197 1
287 197 537 1
288 197 198 1
289 197 518 1
290 199 208 1
291 199 211 1
292 200 203 1
293 200 201 1
294 200 204 1
295 201 202 1
296 202 582 1
297 202 205 1
298 202 527 1
299 203 220 1
300 205 206 1
301 206 588 1
302 206 207 1
303 206 533 1
304 207 208 1
305 208 209 1
306 208 210 1
307 209 224 1
308 211 212 1
309 211 214 1
310 211 213 1
311 212 233 1
312 214 215 1
313 215 591 1
314 215 216 1
315 215 536 1
316 217 226 1
317 217 229 1
318 218 221 1
319 218 219 1
320 218 222 1
321 219 220 1
322 220 258 1
323 220 223 1
324 221 1696 1
325 222 1642 1
326 223 224 1
327 224 264 1
328 224 225 1
329 225 226 1
330 226 227 1
331 226 228 1
332 227 1700 1
333 228 1646 1
334 229 230 1
335 229 232 1
336 229 231 1
337 230 1709 1
338 231 1655 1
339 232 233 1
340 233 267 1
341 233 234 1
342 235 244 1
343 235 247 1
344 236 239 1
345 236 237 1
346 236 240 1
347 237 238 1
348 238 276 1
349 238 241 1
350 238 257 1
351 239 1714 1
352 240 1696 1
353 241 242 1
354 242 282 1
355 242 243 1
356 242 263 1
357 243 244 1
358 244 245 1
359 244 246 1
360 245 1718 1
361 246 1700 1
362 247 248 1
363 247 250 1
364 247 249 1
365 248 1727 1
366 249 1709 1
367 250 251 1
368 251 285 1
369 251 252 1
370 251 266 1
371 253 262 1
372 253 265 1
373 254 257 1
374 254 255 1
375 254 258 1
376 255 256 1
377 256 600 1
378 256 259 1
379 256 581 1
380 259 260 1
381 260 606 1
382 260 261 1
383 260 587 1
384 261 262 1
385 262 263 1
386 262 264 1
387 265 266 1
388 265 268 1
389 265 267 1
390 268 269 1
391 269 609 1
392 269 270 1
393 269 590 1
394 271 280 1
395 271 283 1
396 272 276 1
397 272 273 1
398 272 275 1
399 273 274 1
400 274 599 1
401 274 277 1
402 274 654 1
403 275 292 1
404 277 278 1
405 278 605 1
406 278 279 1
407 278 660 1
408 279 280 1
409 280 282 1
410 280 281 1
411 281 296 1
412 283 285 1
413 283 286 1
414 283 284 1
415 284 305 1
416 286 287 1
417 287 608 1
418 287 288 1
419 287 663 1
420 289 298 1
421 289 301 1
422 290 294 1
423 290 291 1
424 290 293 1
425 291 292 1
426 292 295 1
427 292 330 1
428 293 1768 1
429 294 1714 1
430 295 296 1
431 296 297 1
432 296 336 1
433 297 298 1
434 298 300 1
435 298 299 1
436 299 1772 1
437 300 1718 1
438 301 303 1
439 301 304 1
440 301 302 1
441 302 1781 1
442 303 1727 1
443 304 305 1
444 305 306 1
445 305 339 1
446 307 316 1
447 307 319 1
448 308 312 1
449 308 309 1
450 308 311 1
451 309 310 1
452 310 329 1
453 310 313 1
454 310 348 1
455 311 1786 1
456 312 1768 1
457 313 314 1
458 314 335 1
459 314 315 1
460 314 354 1
461 315 316 1
462 316 318 1
463 316 317 1
464 317 1790 1
465 318 1772 1
466 319 321 1
467 319 322 1
468 319 320 1
469 320 1799 1
470 321 1781 1
471 322 323 1
472 323 338 1
473 323 324 1
474 323 357 1
475 325 334 1
476 325 337 1
477 326 330 1
478 326 327 1
479 326 329 1
480 327 328 1
481 328 653 1
482 328 331 1
483 328 672 1
484 331 332 1
485 332 659 1
486 332 333 1
487 332 678 1
488 333 334 1
489 334 336 1
490 334 335 1
491 337 339 1
492 337 340 1
493 337 338 1
494 340 341 1
495 341 662 1
496 341 342 1
497 341 681 1
498 343 352 1
499 343 355 1
500 344 348 1
501 344 345 1
502 344 347 1
503 345 346 1
504 346 671 1
505 346 349 1
506 346 366 1
507 349 350 1
508 350 677 1
509 350 351 1
510 350 372 1
511 351 352 1
512 352 354 1
513 352 353 1
514 355 357 1
515 355 358 1
516 355 356 1
517 358 359 1
518 359 680 1
519 359 360 1
520 359 375 1
521 361 370 1
522 361 373 1
523 362 363 1
524 362 365 1
525 362 366 1
526 363 364 1
527 364 402 1
528 364 367 1
529 364 707 1
530 367 368 1
531 368 408 1
532 368 369 1
533 368 713 1
534 369 370 1
535 370 371 1
536 370 372 1
537 373 376 1
538 373 374 1
539 373 375 1
540 376 377 1
541 377 411 1
542 377 378 1
543 377 716 1
544 379 388 1
545 379 391 1
546 380 381 1
547 380 384 1
548 380 383 1
549 381 382 1
550 382 401 1
551 382 420 1
552 382 385 1
553 385 386 1
554 386 407 1
555 386 426 1
556 386 387 1
557 387 388 1
558 388 390 1
559 388 389 1
560 391 394 1
561 391 393 1
562 391 392 1
563 394 395 1
564 395 410 1
565 395 429 1
566 395 396 1
567 397 406 1
568 397 409 1
569 398 399 1
570 398 401 1
571 398 402 1
572 399 400 1
573 400 744 1
574 400 725 1
575 400 403 1
576 403 404 1
577 404 405 1
578 404 750 1
579 404 731 1
580 405 406 1
581 406 407 1
582 406 408 1
583 409 412 1
584 409 410 1
585 409 411 1
586 412 413 1
587 413 753 1
588 413 734 1
589 413 414 1
590 415 424 1
591 415 427 1
592 416 417 1
593 416 419 1
594 416 420 1
595 417 418 1
596 418 798 1
597 418 743 1
598 418 421 1
599 419 436 1
600 421 422 1
601 422 423 1
602 422 804 1
603 422 749 1
604 423 424 1
605 424 425 1
606 424 426 1
607 425 440 1
608 427 430 1
609 427 428 1
610 427 429 1
611 428 449 1
612 430 431 1
613 431 807 1
614 431 752 1
615 431 432 1
616 433 442 1
617 433 445 1
618 434 435 1
619 434 438 1
620 434 437 1
621 435 436 1
622 436 439 1
623 436 474 1
624 439 440 1
625 440 480 1
626 440 441 1
627 441 442 1
628 442 444 1
629 442 443 1
630 445 448 1
631 445 447 1
632 445 446 1
633 448 449 1
634 449 450 1
635 449 483 1
636 451 460 1
637 451 463 1
638 452 456 1
639 452 453 1
640 452 455 1
641 453 454 1
642 454 473 1
643 454 457 1
644 454 492 1
645 457 458 1
646 458 479 1
647 458 498 1
648 458 459 1
649 459 460 1
650 460 462 1
651 460 461 1
652 463 465 1
653 463 466 1
654 463 464 1
655 466 467 1
656 467 482 1
657 467 468 1
658 467 501 1
659 469 478 1
660 469 481 1
661 470 474 1
662 470 471 1
663 470 473 1
664 471 472 1
665 472 797 1
666 472 475 1
667 472 816 1
668 475 476 1
669 476 803 1
670 476 477 1
671 476 822 1
672 477 478 1
673 478 480 1
674 478 479 1
675 481 483 1
676 481 484 1
677 481 482 1
678 484 485 1
679 485 806 1
680 485 486 1
681 485 825 1
682 487 496 1
683 487 499 1
684 488 491 1
685 488 492 1
686 488 489 1
687 489 490 1
688 490 815 1
689 490 870 1
690 490 493 1
691 491 508 1
692 493 494 1
693 494 821 1
694 494 876 1
695 494 495 1
696 495 496 1
697 496 497 1
698 496 498 1
699 497 512 1
700 499 500 1
701 499 501 1
702 499 502 1
703 500 521 1
704 502 503 1
705 503 824 1
706 503 879 1
707 503 504 1
708 505 514 1
709 505 517 1
710 506 509 1
711 506 507 1
712 506 510 1
713 507 508 1
714 508 546 1
715 508 511 1
716 511 512 1
717 512 552 1
718 512 513 1
719 513 514 1
720 514 515 1
721 514 516 1
722 517 518 1
723 517 520 1
724 517 519 1
725 520 521 1
726 521 555 1
727 521 522 1
728 523 532 1
729 523 535 1
730 524 527 1
731 524 525 1
732 524 528 1
733 525 526 1
734 526 564 1
735 526 529 1
736 526 545 1
737 529 530 1
738 530 570 1
739 530 551 1
740 530 531 1
741 531 532 1
742 532 533 1
743 532 534 1
744 535 536 1
745 535 538 1
746 535 537 1
747 538 539 1
748 539 573 1
749 539 540 1
750 539 554 1
751 541 550 1
752 541 553 1
753 542 545 1
754 542 543 1
755 542 546 1
756 543 544 1
757 544 888 1
758 544 547 1
759 544 869 1
760 547 548 1
761 548 894 1
762 548 549 1
763 548 875 1
764 549 550 1
765 550 551 1
766 550 552 1
767 553 554 1
768 553 556 1
769 553 555 1
770 556 557 1
771 557 897 1
772 557 558 1
773 557 878 1
774 559 568 1
775 559 571 1
776 560 563 1
777 560 561 1
778 560 564 1
779 561 562 1
780 562 942 1
781 562 565 1
782 562 887 1
783 563 580 1
784 565 566 1
785 566 948 1
786 566 567 1
787 566 893 1
788 567 568 1
789 568 569 1
790 568 570 1
791 569 584 1
792 571 572 1
793 571 574 1
794 571 573 1
795 572 593 1
796 574 575 1
797 575 951 1
798 575 576 1
799 575 896 1
800 577 586 1
801 577 589 1
802 578 581 1
803 578 579 1
804 578 582 1
805 579 580 1
806 580 618 1
807 580 583 1
808 583 584 1
809 584 624 1
810 584 585 1
811 585 586 1
812 586 587 1
813 586 588 1
814 589 590 1
815 589 592 1
816 589 591 1
817 592 593 1
818 593 627 1
819 593 594 1
820 595 604 1
821 595 607 1
822 596 599 1
823 596 597 1
824 596 600 1
825 597 598 1
826 598 636 1
827 598 601 1
828 598 617 1
829 601 602 1
830 602 642 1
831 602 623 1
832 602 603 1
833 603 604 1
834 604 605 1
835 604 606 1
836 607 608 1
837 607 610 1
838 607 609 1
839 610 611 1
840 611 645 1
841 611 612 1
842 611 626 1
843 613 622 1
844 613 625 1
845 614 617 1
846 614 615 1
847 614 618 1
848 615 616 1
849 616 960 1
850 616 619 1
851 616 941 1
852 619 620 1
853 620 966 1
854 620 621 1
855 620 947 1
856 621 622 1
857 622 623 1
858 622 624 1
859 625 626 1
860 625 628 1
861 625 627 1
862 628 629 1
863 629 969 1
864 629 630 1
865 629 950 1
866 631 640 1
867 631 643 1
868 632 636 1
869 632 633 1
870 632 635 1
871 633 634 1
872 634 959 1
873 634 637 1
874 634 1014 1
875 635 652 1
876 637 638 1
877 638 965 1
878 638 639 1
879 638 1020 1
880 639 640 1
881 640 642 1
882 640 641 1
883 641 656 1
884 643 645 1
885 643 646 1
886 643 644 1
887 644 665 1
888 646 647 1
889 647 968 1
890 647 648 1
891 647 1023 1
892 649 658 1
893 649 661 1
894 650 654 1
895 650 651 1
896 650 653 1
897 651 652 1
898 652 655 1
899 652 690 1
900 655 656 1
901 656 696 1
902 656 657 1
903 657 658 1
904 658 660 1
905 658 659 1
906 661 663 1
907 661 664 1
908 661 662 1
909 664 665 1
910 665 666 1
911 665 699 1
912 667 676 1
913 667 679 1
914 668 672 1
915 668 669 1
916 668 671 1
917 669 670 1
918 670 689 1
919 670 673 1
920 670 708 1
921 673 674 1
922 674 695 1
923 674 714 1
924 674 675 1
925 675 676 1
926 676 678 1
927 676 677 1
928 679 681 1
929 679 682 1
930 679 680 1
931 682 683 1
932 683 698 1
933 683 684 1
934 683 717 1
935 685 694 1
936 685 697 1
937 686 690 1
938 686 687 1
939 686 689 1
940 687 688 1
941 688 1013 1
942 688 691 1
943 688 1032 1
944 691 692 1
945 692 1019 1
946 692 693 1
947 692 1038 1
948 693 694 1
949 694 696 1
950 694 695 1
951 697 699 1
952 697 700 1
953 697 698 1
954 700 701 1
955 701 1022 1
956 701 702 1
957 701 1041 1
958 703 712 1
959 703 715 1
960 704 708 1
961 704 705 1
962 704 707 1
963 705 706 1
964 706 1031 1
965 706 709 1
966 706 726 1
967 709 710 1
968 710 1037 1
969 710 711 1
970 710 732 1
971 711 712 1
972 712 714 1
973 712 713 1
974 715 717 1
975 715 718 1
976 715 716 1
977 718 719 1
978 719 1040 1
979 719 720 1
980 719 735 1
981 721 730 1
982 721 733 1
983 722 723 1
984 722 725 1
985 722 726 1
986 723 724 1
987 724 762 1
988 724 727 1
989 724 1067 1
990 727 728 1
991 728 768 1
992 728 729 1
993 728 1073 1
994 729 730 1
995 730 731 1
996 730 732 1
997 733 736 1
998 733 734 1
999 733 735 1
1000 736 737 1
1001 737 771 1
1002 737 738 1
1003 737 1076 1
1004 739 748 1
1005 739 751 1
1006 740 741 1
1007 740 744 1
1008 740 743 1
1009 741 742 1
1010 742 761 1
1011 742 780 1
1012 742 745 1
1013 745 746 1
1014 746 767 1
1015 746 786 1
1016 746 747 1
1017 747 748 1
1018 748 750 1
1019 748 749 1
1020 751 754 1
1021 751 753 1
1022 751 752 1
1023 754 755 1
1024 755 770 1
1025 755 789 1
1026 755 756 1
1027 757 766 1
1028 757 769 1
1029 758 759 1
1030 758 761 1
1031 758 762 1
1032 759 760 1
1033 760 1104 1
1034 760 1085 1
1035 760 763 1
1036 763 764 1
1037 764 765 1
1038 764 1110 1
1039 764 1091 1
1040 765 766 1
1041 766 767 1
1042 766 768 1
1043 769 772 1
1044 769 770 1
1045 769 771 1
1046 772 773 1
1047 773 1113 1
1048 773 1094 1
1049 773 774 1
1050 775 784 1
1051 775 787 1
1052 776 777 1
1053 776 779 1
1054 776 780 1
1055 777 778 1
1056 778 1158 1
1057 778 1103 1
1058 778 781 1
1059 779 796 1
1060 781 782 1
1061 782 783 1
1062 782 1164 1
1063 782 1109 1
1064 783 784 1
1065 784 785 1
1066 784 786 1
1067 785 800 1
1068 787 790 1
1069 787 788 1
1070 787 789 1
1071 788 809 1
1072 790 791 1
1073 791 1167 1
1074 791 1112 1
1075 791 792 1
1076 793 802 1
1077 793 805 1
1078 794 798 1
1079 794 795 1
1080 794 797 1
1081 795 796 1
1082 796 799 1
1083 796 834 1
1084 799 800 1
1085 800 840 1
1086 800 801 1
1087 801 802 1
1088 802 804 1
1089 802 803 1
1090 805 807 1
1091 805 808 1
1092 805 806 1
1093 808 809 1
1094 809 810 1
1095 809 843 1
1096 811 820 1
1097 811 823 1
1098 812 816 1
1099 812 813 1
1100 812 815 1
1101 813 814 1
1102 814 833 1
1103 814 817 1
1104 814 852 1
1105 817 818 1
1106 818 839 1
1107 818 858 1
1108 818 819 1
1109 819 820 1
1110 820 822 1
1111 820 821 1
1112 823 825 1
1113 823 826 1
1114 823 824 1
1115 826 827 1
1116 827 842 1
1117 827 828 1
1118 827 861 1
1119 829 838 1
1120 829 841 1
1121 830 834 1
1122 830 831 1
1123 830 833 1
1124 831 832 1
1125 832 1157 1
1126 832 835 1
1127 832 1176 1
1128 835 836 1
1129 836 1163 1
1130 836 837 1
1131 836 1182 1
1132 837 838 1
1133 838 840 1
1134 838 839 1
1135 841 843 1
1136 841 844 1
1137 841 842 1
1138 844 845 1
1139 845 1166 1
1140 845 846 1
1141 845 1185 1
1142 847 856 1
1143 847 859 1
1144 848 851 1
1145 848 852 1
1146 848 849 1
1147 849 850 1
1148 850 1175 1
1149 850 1230 1
1150 850 853 1
1151 851 868 1
1152 853 854 1
1153 854 1181 1
1154 854 1236 1
1155 854 855 1
1156 855 856 1
1157 856 857 1
1158 856 858 1
1159 857 872 1
1160 859 860 1
1161 859 861 1
1162 859 862 1
1163 860 881 1
1164 862 863 1
1165 863 1184 1
1166 863 1239 1
1167 863 864 1
1168 865 874 1
1169 865 877 1
1170 866 869 1
1171 866 867 1
1172 866 870 1
1173 867 868 1
1174 868 906 1
1175 868 871 1
1176 871 872 1
1177 872 912 1
1178 872 873 1
1179 873 874 1
1180 874 875 1
1181 874 876 1
1182 877 878 1
1183 877 880 1
1184 877 879 1
1185 880 881 1
1186 881 915 1
1187 881 882 1
1188 883 892 1
1189 883 895 1
1190 884 887 1
1191 884 885 1
1192 884 888 1
1193 885 886 1
1194 886 924 1
1195 886 889 1
1196 886 905 1
1197 889 890 1
1198 890 930 1
1199 890 911 1
1200 890 891 1
1201 891 892 1
1202 892 893 1
1203 892 894 1
1204 895 896 1
1205 895 898 1
1206 895 897 1
1207 898 899 1
1208 899 933 1
1209 899 900 1
1210 899 914 1
1211 901 910 1
1212 901 913 1
1213 902 905 1
1214 902 903 1
1215 902 906 1
1216 903 904 1
1217 904 1248 1
1218 904 907 1
1219 904 1229 1
1220 907 908 1
1221 908 1254 1
1222 908 909 1
1223 908 1235 1
1224 909 910 1
1225 910 911 1
1226 910 912 1
1227 913 914 1
1228 913 916 1
1229 913 915 1
1230 916 917 1
1231 917 1257 1
1232 917 918 1
1233 917 1238 1
1234 919 928 1
1235 919 931 1
1236 920 923 1
1237 920 921 1
1238 920 924 1
1239 921 922 1
1240 922 1302 1
1241 922 925 1
1242 922 1247 1
1243 923 940 1
1244 925 926 1
1245 926 1308 1
1246 926 927 1
1247 926 1253 1
1248 927 928 1
1249 928 929 1
1250 928 930 1
1251 929 944 1
1252 931 932 1
1253 931 934 1
1254 931 933 1
1255 932 953 1
1256 934 935 1
1257 935 1311 1
1258 935 936 1
1259 935 1256 1
1260 937 946 1
1261 937 949 1
1262 938 941 1
1263 938 939 1
1264 938 942 1
1265 939 940 1
1266 940 978 1
1267 940 943 1
1268 943 944 1
1269 944 984 1
1270 944 945 1
1271 945 946 1
1272 946 947 1
1273 946 948 1
1274 949 950 1
1275 949 952 1
1276 949 951 1
1277 952 953 1
1278 953 987 1
1279 953 954 1
1280 955 964 1
1281 955 967 1
1282 956 959 1
1283 956 957 1
1284 956 960 1
1285 957 958 1
1286 958 996 1
1287 958 961 1
1288 958 977 1
1289 961 962 1
1290 962 1002 1
1291 962 983 1
1292 962 963 1
1293 963 964 1
1294 964 965 1
1295 964 966 1
1296 967 968 1
1297 967 970 1
1298 967 969 1
1299 970 971 1
1300 971 1005 1
1301 971 972 1
1302 971 986 1
1303 973 982 1
1304 973 985 1
1305 974 977 1
1306 974 975 1
1307 974 978 1
1308 975 976 1
1309 976 1320 1
1310 976 979 1
1311 976 1301 1
1312 979 980 1
1313 980 1326 1
1314 980 981 1
1315 980 1307 1
1316 981 982 1
1317 982 983 1
1318 982 984 1
1319 985 986 1
1320 985 988 1
1321 985 987 1
1322 988 989 1
1323 989 1329 1
1324 989 990 1
1325 989 1310 1
1326 991 1000 1
1327 991 1003 1
1328 992 996 1
1329 992 993 1
1330 992 995 1
1331 993 994 1
1332 994 1319 1
1333 994 997 1
1334 994 1374 1
1335 995 1012 1
1336 997 998 1
1337 998 1325 1
1338 998 999 1
1339 998 1380 1
1340 999 1000 1
1341 1000 1002 1
1342 1000 1001 1
1343 1001 1016 1
1344 1003 1005 1
1345 1003 1006 1
1346 1003 1004 1
1347 1004 1025 1
1348 1006 1007 1
1349 1007 1328 1
1350 1007 1008 1
1351 1007 1383 1
1352 1009 1018 1
1353 1009 1021 1
1354 1010 1014 1
1355 1010 1011 1
1356 1010 1013 1
1357 1011 1012 1
1358 1012 1015 1
1359 1012 1050 1
1360 1015 1016 1
1361 1016 1056 1
1362 1016 1017 1
1363 1017 1018 1
1364 1018 1020 1
1365 1018 1019 1
1366 1021 1023 1
1367 1021 1024 1
1368 1021 1022 1
1369 1024 1025 1
1370 1025 1026 1
1371 1025 1059 1
1372 1027 1036 1
1373 1027 1039 1
1374 1028 1032 1
1375 1028 1029 1
1376 1028 1031 1
1377 1029 1030 1
1378 1030 1049 1
1379 1030 1033 1
1380 1030 1068 1
1381 1033 1034 1
1382 1034 1055 1
1383 1034 1074 1
1384 1034 1035 1
1385 1035 1036 1
1386 1036 1038 1
1387 1036 1037 1
1388 1039 1041 1
1389 1039 1042 1
1390 1039 1040 1
1391 1042 1043 1
1392 1043 1058 1
1393 1043 1044 1
1394 1043 1077 1
1395 1045 1054 1
1396 1045 1057 1
1397 1046 1050 1
1398 1046 1047 1
1399 1046 1049 1
1400 1047 1048 1
1401 1048 1373 1
1402 1048 1051 1
1403 1048 1392 1
1404 1051 1052 1
1405 1052 1379 1
1406 1052 1053 1
1407 1052 1398 1
1408 1053 1054 1
1409 1054 1056 1
1410 1054 1055 1
1411 1057 1059 1
1412 1057 1060 1
1413 1057 1058 1
1414 1060 1061 1
1415 1061 1382 1
1416 1061 1062 1
1417 1061 1401 1
1418 1063 1072 1
1419 1063 1075 1
1420 1064 1068 1
1421 1064 1065 1
1422 1064 1067 1
1423 1065 1066 1
1424 1066 1391 1
1425 1066 1069 1
1426 1066 1086 1
1427 1069 1070 1
1428 1070 1397 1
1429 1070 1071 1
1430 1070 1092 1
1431 1071 1072 1
1432 1072 1074 1
1433 1072 1073 1
1434 1075 1077 1
1435 1075 1078 1
1436 1075 1076 1
1437 1078 1079 1
1438 1079 1400 1
1439 1079 1080 1
1440 1079 1095 1
1441 1081 1090 1
1442 1081 1093 1
1443 1082 1083 1
1444 1082 1085 1
1445 1082 1086 1
1446 1083 1084 1
1447 1084 1122 1
1448 1084 1087 1
1449 1084 1427 1
1450 1087 1088 1
1451 1088 1128 1
1452 1088 1089 1
1453 1088 1433 1
1454 1089 1090 1
1455 1090 1091 1
1456 1090 1092 1
1457 1093 1096 1
1458 1093 1094 1
1459 1093 1095 1
1460 1096 1097 1
1461 1097 1131 1
1462 1097 1098 1
1463 1097 1436 1
1464 1099 1108 1
1465 1099 1111 1
1466 1100 1101 1
1467 1100 1104 1
1468 1100 1103 1
1469 1101 1102 1
1470 1102 1121 1
1471 1102 1140 1
1472 1102 1105 1
1473 1105 1106 1
1474 1106 1127 1
1475 1106 1146 1
1476 1106 1107 1
1477 1107 1108 1
1478 1108 1110 1
1479 1108 1109 1
1480 1111 1114 1
1481 1111 1113 1
1482 1111 1112 1
1483 1114 1115 1
1484 1115 1130 1
1485 1115 1149 1
1486 1115 1116 1
1487 1117 1126 1
1488 1117 1129 1
1489 1118 1119 1
1490 1118 1121 1
1491 1118 1122 1
1492 1119 1120 1
1493 1120 1464 1
1494 1120 1445 1
1495 1120 1123 1
1496 1123 1124 1
1497 1124 1125 1
1498 1124 1470 1
1499 1124 1451 1
1500 1125 1126 1
1501 1126 1127 1
1502 1126 1128 1
1503 1129 1132 1
1504 1129 1130 1
1505 1129 1131 1
1506 1132 1133 1
1507 1133 1473 1
1508 1133 1454 1
1509 1133 1134 1
1510 1135 1144 1
1511 1135 1147 1
1512 1136 1137 1
1513 1136 1139 1
1514 1136 1140 1
1515 1137 1138 1
1516 1138 1518 1
1517 1138 1463 1
1518 1138 1141 1
1519 1139 1156 1
1520 1141 1142 1
1521 1142 1143 1
1522 1142 1524 1
1523 1142 1469 1
1524 1143 1144 1
1525 1144 1145 1
1526 1144 1146 1
1527 1145 1160 1
1528 1147 1150 1
1529 1147 1148 1
1530 1147 1149 1
1531 1148 1169 1
1532 1150 1151 1
1533 1151 1527 1
1534 1151 1472 1
1535 1151 1152 1
1536 1153 1162 1
1537 1153 1165 1
1538 1154 1158 1
1539 1154 1155 1
1540 1154 1157 1
1541 1155 1156 1
1542 1156 1159 1
1543 1156 1194 1
1544 1159 1160 1
1545 1160 1200 1
1546 1160 1161 1
1547 1161 1162 1
1548 1162 1164 1
1549 1162 1163 1
1550 1165 1167 1
1551 1165 1168 1
1552 1165 1166 1
1553 1168 1169 1
1554 1169 1170 1
1555 1169 1203 1
1556 1171 1180 1
1557 1171 1183 1
1558 1172 1176 1
1559 1172 1173 1
1560 1172 1175 1
1561 1173 1174 1
1562 1174 1193 1
1563 1174 1177 1
1564 1174 1212 1
1565 1177 1178 1
1566 1178 1199 1
1567 1178 1218 1
1568 1178 1179 1
1569 1179 1180 1
1570 1180 1182 1
1571 1180 1181 1
1572 1183 1185 1
1573 1183 1186 1
1574 1183 1184 1
1575 1186 1187 1
1576 1187 1202 1
1577 1187 1188 1
1578 1187 1221 1
1579 1189 1198 1
1580 1189 1201 1
1581 1190 1194 1
1582 1190 1191 1
1583 1190 1193 1
1584 1191 1192 1
1585 1192 1517 1
1586 1192 1195 1
1587 1192 1536 1
1588 1195 1196 1
1589 1196 1523 1
1590 1196 1197 1
1591 1196 1542 1
1592 1197 1198 1
1593 1198 1200 1
1594 1198 1199 1
1595 1201 1203 1
1596 1201 1204 1
1597 1201 1202 1
1598 1204 1205 1
1599 1205 1526 1
1600 1205 1206 1
1601 1205 1545 1
1602 1207 1216 1
1603 1207 1219 1
1604 1208 1211 1
1605 1208 1212 1
1606 1208 1209 1
1607 1209 1210 1
1608 1210 1535 1
1609 1210 1590 1
1610 1210 1213 1
1611 1211 1228 1
1612 1213 1214 1
1613 1214 1541 1
1614 1214 1596 1
1615 1214 1215 1
1616 1215 1216 1
1617 1216 1217 1
1618 1216 1218 1
1619 1217 1232 1
1620 1219 1220 1
1621 1219 1221 1
1622 1219 1222 1
1623 1220 1241 1
1624 1222 1223 1
1625 1223 1544 1
1626 1223 1599 1
1627 1223 1224 1
1628 1225 1234 1
1629 1225 1237 1
1630 1226 1229 1
1631 1226 1227 1
1632 1226 1230 1
1633 1227 1228 1
1634 1228 1266 1
1635 1228 1231 1
1636 1231 1232 1
1637 1232 1272 1
1638 1232 1233 1
1639 1233 1234 1
1640 1234 1235 1
1641 1234 1236 1
1642 1237 1238 1
1643 1237 1240 1
1644 1237 1239 1
1645 1240 1241 1
1646 1241 1275 1
1647 1241 1242 1
1648 1243 1252 1
1649 1243 1255 1
1650 1244 1247 1
1651 1244 1245 1
1652 1244 1248 1
1653 1245 1246 1
1654 1246 1284 1
1655 1246 1249 1
1656 1246 1265 1
1657 1249 1250 1
1658 1250 1290 1
1659 1250 1271 1
1660 1250 1251 1
1661 1251 1252 1
1662 1252 1253 1
1663 1252 1254 1
1664 1255 1256 1
1665 1255 1258 1
1666 1255 1257 1
1667 1258 1259 1
1668 1259 1293 1
1669 1259 1260 1
1670 1259 1274 1
1671 1261 1270 1
1672 1261 1273 1
1673 1262 1265 1
1674 1262 1263 1
1675 1262 1266 1
1676 1263 1264 1
1677 1264 1608 1
1678 1264 1267 1
1679 1264 1589 1
1680 1267 1268 1
1681 1268 1614 1
1682 1268 1269 1
1683 1268 1595 1
1684 1269 1270 1
1685 1270 1271 1
1686 1270 1272 1
1687 1273 1274 1
1688 1273 1276 1
1689 1273 1275 1
1690 1276 1277 1
1691 1277 1617 1
1692 1277 1278 1
1693 1277 1598 1
1694 1279 1288 1
1695 1279 1291 1
1696 1280 1283 1
1697 1280 1281 1
1698 1280 1284 1
1699 1281 1282 1
1700 1282 1662 1
1701 1282 1285 1
1702 1282 1607 1
1703 1283 1300 1
1704 1285 1286 1
1705 1286 1668 1
1706 1286 1287 1
1707 1286 1613 1
1708 1287 1288 1
1709 1288 1289 1
1710 1288 1290 1
1711 1289 1304 1
1712 1291 1292 1
1713 1291 1294 1
1714 1291 1293 1
1715 1292 1313 1
1716 1294 1295 1
1717 1295 1671 1
1718 1295 1296 1
1719 1295 1616 1
1720 1297 1306 1
1721 1297 1309 1
1722 1298 1301 1
1723 1298 1299 1
1724 1298 1302 1
1725 1299 1300 1
1726 1300 1338 1
1727 1300 1303 1
1728 1303 1304 1
1729 1304 1344 1
1730 1304 1305 1
1731 1305 1306 1
1732 1306 1307 1
1733 1306 1308 1
1734 1309 1310 1
1735 1309 1312 1
1736 1309 1311 1
1737 1312 1313 1
1738 1313 1347 1
1739 1313 1314 1
1740 1315 1324 1
1741 1315 1327 1
1742 1316 1319 1
1743 1316 1317 1
1744 1316 1320 1
1745 1317 1318 1
1746 1318 1356 1
1747 1318 1321 1
1748 1318 1337 1
1749 1321 1322 1
1750 1322 1362 1
1751 1322 1343 1
1752 1322 1323 1
1753 1323 1324 1
1754 1324 1325 1
1755 1324 1326 1
1756 1327 1328 1
1757 1327 1330 1
1758 1327 1329 1
1759 1330 1331 1
1760 1331 1365 1
1761 1331 1332 1
1762 1331 1346 1
1763 1333 1342 1
1764 1333 1345 1
1765 1334 1337 1
1766 1334 1335 1
1767 1334 1338 1
1768 1335 1336 1
1769 1336 1680 1
1770 1336 1339 1
1771 1336 1661 1
1772 1339 1340 1
1773 1340 1686 1
1774 1340 1341 1
1775 1340 1667 1
1776 1341 1342 1
1777 1342 1343 1
1778 1342 1344 1
1779 1345 1346 1
1780 1345 1348 1
1781 1345 1347 1
1782 1348 1349 1
1783 1349 1689 1
1784 1349 1350 1
1785 1349 1670 1
1786 1351 1360 1
1787 1351 1363 1
1788 1352 1356 1
1789 1352 1353 1
1790 1352 1355 1
1791 1353 1354 1
1792 1354 1679 1
1793 1354 1357 1
1794 1354 1734 1
1795 1355 1372 1
1796 1357 1358 1
1797 1358 1685 1
1798 1358 1359 1
1799 1358 1740 1
1800 1359 1360 1
1801 1360 1362 1
1802 1360 1361 1
1803 1361 1376 1
1804 1363 1365 1
1805 1363 1366 1
1806 1363 1364 1
1807 1364 1385 1
1808 1366 1367 1
1809 1367 1688 1
1810 1367 1368 1
1811 1367 1743 1
1812 1369 1378 1
1813 1369 1381 1
1814 1370 1374 1
1815 1370 1371 1
1816 1370 1373 1
1817 1371 1372 1
1818 1372 1375 1
1819 1372 1410 1
1820 1375 1376 1
1821 1376 1416 1
1822 1376 1377 1
1823 1377 1378 1
1824 1378 1380 1
1825 1378 1379 1
1826 1381 1383 1
1827 1381 1384 1
1828 1381 1382 1
1829 1384 1385 1
1830 1385 1386 1
1831 1385 1419 1
1832 1387 1396 1
1833 1387 1399 1
1834 1388 1392 1
1835 1388 1389 1
1836 1388 1391 1
1837 1389 1390 1
1838 1390 1409 1
1839 1390 1393 1
1840 1390 1428 1
1841 1393 1394 1
1842 1394 1415 1
1843 1394 1434 1
1844 1394 1395 1
1845 1395 1396 1
1846 1396 1398 1
1847 1396 1397 1
1848 1399 1401 1
1849 1399 1402 1
1850 1399 1400 1
1851 1402 1403 1
1852 1403 1418 1
1853 1403 1404 1
1854 1403 1437 1
1855 1405 1414 1
1856 1405 1417 1
1857 1406 1410 1
1858 1406 1407 1
1859 1406 1409 1
1860 1407 1408 1
1861 1408 1733 1
1862 1408 1411 1
1863 1408 1752 1
1864 1411 1412 1
1865 1412 1739 1
1866 1412 1413 1
1867 1412 1758 1
1868 1413 1414 1
1869 1414 1416 1
1870 1414 1415 1
1871 1417 1419 1
1872 1417 1420 1
1873 1417 1418 1
1874 1420 1421 1
1875 1421 1742 1
1876 1421 1422 1
1877 1421 1761 1
1878 1423 1432 1
1879 1423 1435 1
1880 1424 1428 1
1881 1424 1425 1
1882 1424 1427 1
1883 1425 1426 1
1884 1426 1751 1
1885 1426 1429 1
1886 1426 1446 1
1887 1429 1430 1
1888 1430 1757 1
1889 1430 1431 1
1890 1430 1452 1
1891 1431 1432 1
1892 1432 1434 1
1893 1432 1433 1
1894 1435 1437 1
1895 1435 1438 1
1896 1435 1436 1
1897 1438 1439 1
1898 1439 1760 1
1899 1439 1440 1
1900 1439 1455 1
1901 1441 1450 1
1902 1441 1453 1
1903 1442 1445 1
1904 1442 1446 1
1905 1442 1443 1
1906 1443 1444 1
1907 1444 1482 1
1908 1444 1447 1
1909 1444 1787 1
1910 1447 1448 1
1911 1448 1449 1
1912 1448 1488 1
1913 1448 1793 1
1914 1449 1450 1
1915 1450 1451 1
1916 1450 1452 1
1917 1453 1454 1
1918 1453 1455 1
1919 1453 1456 1
1920 1456 1457 1
1921 1457 1491 1
1922 1457 1458 1
1923 1457 1796 1
1924 1459 1468 1
1925 1459 1471 1
1926 1460 1464 1
1927 1460 1463 1
1928 1460 1461 1
1929 1461 1462 1
1930 1462 1481 1
1931 1462 1500 1
1932 1462 1465 1
1933 1465 1466 1
1934 1466 1467 1
1935 1466 1487 1
1936 1466 1506 1
1937 1467 1468 1
1938 1468 1470 1
1939 1468 1469 1
1940 1471 1473 1
1941 1471 1472 1
1942 1471 1474 1
1943 1474 1475 1
1944 1475 1490 1
1945 1475 1509 1
1946 1475 1476 1
1947 1477 1486 1
1948 1477 1489 1
1949 1478 1479 1
1950 1478 1481 1
1951 1478 1482 1
1952 1479 1480 1
1953 1480 1483 1
1954 1483 1484 1
1955 1484 1485 1
1956 1485 1486 1
1957 1486 1487 1
1958 1486 1488 1
1959 1489 1492 1
1960 1489 1490 1
1961 1489 1491 1
1962 1492 1493 1
1963 1493 1494 1
1964 1495 1504 1
1965 1495 1507 1
1966 1496 1497 1
1967 1496 1499 1
1968 1496 1500 1
1969 1497 1498 1
1970 1498 1501 1
1971 1499 1516 1
1972 1501 1502 1
1973 1502 1503 1
1974 1503 1504 1
1975 1504 1505 1
1976 1504 1506 1
1977 1505 1520 1
1978 1507 1510 1
1979 1507 1508 1
1980 1507 1509 1
1981 1508 1529 1
1982 1510 1511 1
1983 1511 1512 1
1984 1513 1522 1
1985 1513 1525 1
1986 1514 1518 1
1987 1514 1517 1
1988 1514 1515 1
1989 1515 1516 1
1990 1516 1519 1
1991 1516 1554 1
1992 1519 1520 1
1993 1520 1521 1
1994 1520 1560 1
1995 1521 1522 1
1996 1522 1524 1
1997 1522 1523 1
1998 1525 1527 1
1999 1525 1526 1
2000 1525 1528 1
2001 1528 1529 1
2002 1529 1530 1
2003 1529 1563 1
2004 1531 1540 1
2005 1531 1543 1
2006 1532 1536 1
2007 1532 1535 1
2008 1532 1533 1
2009 1533 1534 1
2010 1534 1553 1
2011 1534 1537 1
2012 1534 1572 1
2013 1537 1538 1
2014 1538 1559 1
2015 1538 1539 1
2016 1538 1578 1
2017 1539 1540 1
2018 1540 1542 1
2019 1540 1541 1
2020 1543 1545 1
2021 1543 1544 1
2022 1543 1546 1
2023 1546 1547 1
2024 1547 1562 1
2025 1547 1548 1
2026 1547 1581 1
2027 1549 1558 1
2028 1549 1561 1
2029 1550 1554 1
2030 1550 1551 1
2031 1550 1553 1
2032 1551 1552 1
2033 1552 1555 1
2034 1555 1556 1
2035 1556 1557 1
2036 1557 1558 1
2037 1558 1560 1
2038 1558 1559 1
2039 1561 1563 1
2040 1561 1564 1
2041 1561 1562 1
2042 1564 1565 1
2043 1565 1566 1
2044 1567 1576 1
2045 1567 1579 1
2046 1568 1571 1
2047 1568 1572 1
2048 1568 1569 1
2049 1569 1570 1
2050 1570 1573 1
2051 1571 1588 1
2052 1573 1574 1
2053 1574 1575 1
2054 1575 1576 1
2055 1576 1577 1
2056 1576 1578 1
2057 1577 1592 1
2058 1579 1580 1
2059 1579 1581 1
2060 1579 1582 1
2061 1580 1601 1
2062 1582 1583 1
2063 1583 1584 1
2064 1585 1594 1
2065 1585 1597 1
2066 1586 1589 1
2067 1586 1590 1
2068 1586 1587 1
2069 1587 1588 1
2070 1588 1626 1
2071 1588 1591 1
2072 1591 1592 1
2073 1592 1632 1
2074 1592 1593 1
2075 1593 1594 1
2076 1594 1595 1
2077 1594 1596 1
2078 1597 1598 1
2079 1597 1599 1
2080 1597 1600 1
2081 1600 1601 1
2082 1601 1635 1
2083 1601 1602 1
2084 1603 1612 1
2085 1603 1615 1
2086 1604 1607 1
2087 1604 1608 1
2088 1604 1605 1
2089 1605 1606 1
2090 1606 1644 1
2091 1606 1609 1
2092 1606 1625 1
2093 1609 1610 1
2094 1610 1650 1
2095 1610 1611 1
2096 1610 1631 1
2097 1611 1612 1
2098 1612 1613 1
2099 1612 1614 1
2100 1615 1616 1
2101 1615 1617 1
2102 1615 1618 1
2103 1618 1619 1
2104 1619 1653 1
2105 1619 1620 1
2106 1619 1634 1
2107 1621 1630 1
2108 1621 1633 1
2109 1622 1625 1
2110 1622 1623 1
2111 1622 1626 1
2112 1623 1624 1
2113 1624 1627 1
2114 1627 1628 1
2115 1628 1629 1
2116 1629 1630 1
2117 1630 1631 1
2118 1630 1632 1
2119 1633 1634 1
2120 1633 1636 1
2121 1633 1635 1
2122 1636 1637 1
2123 1637 1638 1
2124 1639 1648 1
2125 1639 1651 1
2126 1640 1643 1
2127 1640 1641 1
2128 1640 1644 1
2129 1641 1642 1
2130 1642 1645 1
2131 1643 1660 1
2132 1645 1646 1
2133 1646 1647 1
2134 1647 1648 1
2135 1648 1649 1
2136 1648 1650 1
2137 1649 1664 1
2138 1651 1652 1
2139 1651 1654 1
2140 1651 1653 1
2141 1652 1673 1
2142 1654 1655 1
2143 1655 1656 1
2144 1657 1666 1
2145 1657 1669 1
2146 1658 1661 1
2147 1658 1662 1
2148 1658 1659 1
2149 1659 1660 1
2150 1660 1698 1
2151 1660 1663 1
2152 1663 1664 1
2153 1664 1704 1
2154 1664 1665 1
2155 1665 1666 1
2156 1666 1667 1
2157 1666 1668 1
2158 1669 1670 1
2159 1669 1671 1
2160 1669 1672 1
2161 1672 1673 1
2162 1673 1707 1
2163 1673 1674 1
2164 1675 1684 1
2165 1675 1687 1
2166 1676 1679 1
2167 1676 1680 1
2168 1676 1677 1
2169 1677 1678 1
2170 1678 1716 1
2171 1678 1681 1
2172 1678 1697 1
2173 1681 1682 1
2174 1682 1722 1
2175 1682 1683 1
2176 1682 1703 1
2177 1683 1684 1
2178 1684 1685 1
2179 1684 1686 1
2180 1687 1688 1
2181 1687 1689 1
2182 1687 1690 1
2183 1690 1691 1
2184 1691 1725 1
2185 1691 1692 1
2186 1691 1706 1
2187 1693 1702 1
2188 1693 1705 1
2189 1694 1697 1
2190 1694 1695 1
2191 1694 1698 1
2192 1695 1696 1
2193 1696 1699 1
2194 1699 1700 1
2195 1700 1701 1
2196 1701 1702 1
2197 1702 1703 1
2198 1702 1704 1
2199 1705 1706 1
2200 1705 1708 1
2201 1705 1707 1
2202 1708 1709 1
2203 1709 1710 1
2204 1711 1720 1
2205 1711 1723 1
2206 1712 1716 1
2207 1712 1713 1
2208 1712 1715 1
2209 1713 1714 1
2210 1714 1717 1
2211 1715 1732 1
2212 1717 1718 1
2213 1718 1719 1
2214 1719 1720 1
2215 1720 1722 1
2216 1720 1721 1
2217 1721 1736 1
2218 1723 1725 1
2219 1723 1726 1
2220 1723 1724 1
2221 1724 1745 1
2222 1726 1727 1
2223 1727 1728 1
2224 1729 1738 1
2225 1729 1741 1
2226 1730 1734 1
2227 1730 1733 1
2228 1730 1731 1
2229 1731 1732 1
2230 1732 1735 1
2231 1732 1770 1
2232 1735 1736 1
2233 1736 1737 1
2234 1736 1776 1
2235 1737 1738 1
2236 1738 1740 1
2237 1738 1739 1
2238 1741 1743 1
2239 1741 1742 1
2240 1741 1744 1
2241 1744 1745 1
2242 1745 1746 1
2243 1745 1779 1
2244 1747 1756 1
2245 1747 1759 1
2246 1748 1752 1
2247 1748 1751 1
2248 1748 1749 1
2249 1749 1750 1
2250 1750 1769 1
2251 1750 1753 1
2252 1750 1788 1
2253 1753 1754 1
2254 1754 1775 1
2255 1754 1755 1
2256 1754 1794 1
2257 1755 1756 1
2258 1756 1758 1
2259 1756 1757 1
2260 1759 1761 1
2261 1759 1760 1
2262 1759 1762 1
2263 1762 1763 1
2264 1763 1778 1
2265 1763 1764 1
2266 1763 1797 1
2267 1765 1774 1
2268 1765 1777 1
2269 1766 1770 1
2270 1766 1767 1
2271 1766 1769 1
2272 1767 1768 1
2273 1768 1771 1
2274 1771 1772 1
2275 1772 1773 1
2276 1773 1774 1
2277 1774 1776 1
2278 1774 1775 1
2279 1777 1779 1
2280 1777 1780 1
2281 1777 1778 1
2282 1780 1781 1
2283 1781 1782 1
2284 1783 1792 1
2285 1783 1795 1
2286 1784 1788 1
2287 1784 1785 1
2288 1784 1787 1
2289 1785 1786 1
2290 1786 1789 1
2291 1789 1790 1
2292 1790 1791 1
2293 1791 1792 1
2294 1792 1794 1
2295 1792 1793 1
2296 1795 1797 1
2297 1795 1798 1
2298 1795 1796 1
2299 1798 1799 1
2300 1799 1800 1
2301 1801 1810 1
2302 1801 1813 1
2303 1802 1805 1
2304 1802 1806 1
2305 1802 1803 1
2306 1803 1804 1
2307 1804 1842 1
2308 1804 1807 1
2309 1804 2147 1
2310 1805 3280 1
2311 1806 3586 1
2312 1807 1808 1
2313 1808 1809 1
2314 1808 1848 1
2315 1808 2153 1
2316 1809 1810 1
2317 1810 1811 1
2318 1810 1812 1
2319 1811 3284 1
2320 1812 3590 1
2321 1813 1814 1
2322 1813 1815 1
2323 1813 1816 1
2324 1814 3293 1
2325 1815 3599 1
2326 1816 1817 1
2327 1817 1851 1
2328 1817 1818 1
2329 1817 2156 1
2330 1819 1828 1
2331 1819 1831 1
2332 1820 1824 1
2333 1820 1823 1
2334 1820 1821 1
2335 1821 1822 1
2336 1822 1841 1
2337 1822 1825 1
2338 1822 1860 1
2339 1823 3298 1
2340 1824 3280 1
2341 1825 1826 1
2342 1826 1827 1
2343 1826 1847 1
2344 1826 1866 1
2345 1827 1828 1
2346 1828 1830 1
2347 1828 1829 1
2348 1829 3302 1
2349 1830 3284 1
2350 1831 1833 1
2351 1831 1832 1
2352 1831 1834 1
2353 1832 3311 1
2354 1833 3293 1
2355 1834 1835 1
2356 1835 1850 1
2357 1835 1869 1
2358 1835 1836 1
2359 1837 1846 1
2360 1837 1849 1
2361 1838 1839 1
2362 1838 1841 1
2363 1838 1842 1
2364 1839 1840 1
2365 1840 1843 1
2366 1840 2184 1
2367 1840 2165 1
2368 1843 1844 1
2369 1844 1845 1
2370 1844 2190 1
2371 1844 2171 1
2372 1845 1846 1
2373 1846 1847 1
2374 1846 1848 1
2375 1849 1852 1
2376 1849 1850 1
2377 1849 1851 1
2378 1852 1853 1
2379 1853 2193 1
2380 1853 2174 1
2381 1853 1854 1
2382 1855 1864 1
2383 1855 1867 1
2384 1856 1859 1
2385 1856 1857 1
2386 1856 1860 1
2387 1857 1858 1
2388 1858 2238 1
2389 1858 1861 1
2390 1858 2183 1
2391 1859 1876 1
2392 1861 1862 1
2393 1862 2244 1
2394 1862 1863 1
2395 1862 2189 1
2396 1863 1864 1
2397 1864 1865 1
2398 1864 1866 1
2399 1865 1880 1
2400 1867 1868 1
2401 1867 1870 1
2402 1867 1869 1
2403 1868 1889 1
2404 1870 1871 1
2405 1871 2247 1
2406 1871 2192 1
2407 1871 1872 1
2408 1873 1882 1
2409 1873 1885 1
2410 1874 1878 1
2411 1874 1875 1
2412 1874 1877 1
2413 1875 1876 1
2414 1876 1879 1
2415 1876 1914 1
2416 1877 3352 1
2417 1878 3298 1
2418 1879 1880 1
2419 1880 1881 1
2420 1880 1920 1
2421 1881 1882 1
2422 1882 1884 1
2423 1882 1883 1
2424 1883 3356 1
2425 1884 3302 1
2426 1885 1887 1
2427 1885 1888 1
2428 1885 1886 1
2429 1886 3365 1
2430 1887 3311 1
2431 1888 1889 1
2432 1889 1890 1
2433 1889 1923 1
2434 1891 1900 1
2435 1891 1903 1
2436 1892 1896 1
2437 1892 1893 1
2438 1892 1895 1
2439 1893 1894 1
2440 1894 1913 1
2441 1894 1897 1
2442 1894 1932 1
2443 1895 3370 1
2444 1896 3352 1
2445 1897 1898 1
2446 1898 1919 1
2447 1898 1899 1
2448 1898 1938 1
2449 1899 1900 1
2450 1900 1902 1
2451 1900 1901 1
2452 1901 3374 1
2453 1902 3356 1
2454 1903 1905 1
2455 1903 1906 1
2456 1903 1904 1
2457 1904 3383 1
2458 1905 3365 1
2459 1906 1907 1
2460 1907 1922 1
2461 1907 1908 1
2462 1907 1941 1
2463 1909 1918 1
2464 1909 1921 1
2465 1910 1914 1
2466 1910 1911 1
2467 1910 1913 1
2468 1911 1912 1
2469 1912 2237 1
2470 1912 1915 1
2471 1912 2256 1
2472 1915 1916 1
2473 1916 2243 1
2474 1916 1917 1
2475 1916 2262 1
2476 1917 1918 1
2477 1918 1920 1
2478 1918 1919 1
2479 1921 1923 1
2480 1921 1924 1
2481 1921 1922 1
2482 1924 1925 1
2483 1925 2246 1
2484 1925 1926 1
2485 1925 2265 1
2486 1927 1936 1
2487 1927 1939 1
2488 1928 1931 1
2489 1928 1932 1
2490 1928 1929 1
2491 1929 1930 1
2492 1930 2255 1
2493 1930 2310 1
2494 1930 1933 1
2495 1931 1948 1
2496 1933 1934 1
2497 1934 2261 1
2498 1934 2316 1
2499 1934 1935 1
2500 1935 1936 1
2501 1936 1937 1
2502 1936 1938 1
2503 1937 1952 1
2504 1939 1940 1
2505 1939 1941 1
2506 1939 1942 1
2507 1940 1961 1
2508 1942 1943 1
2509 1943 2264 1
2510 1943 2319 1
2511 1943 1944 1
2512 1945 1954 1
2513 1945 1957 1
2514 1946 1949 1
2515 1946 1947 1
2516 1946 1950 1
2517 1947 1948 1
2518 1948 1986 1
2519 1948 1951 1
2520 1949 3424 1
2521 1950 3370 1
2522 1951 1952 1
2523 1952 1992 1
2524 1952 1953 1
2525 1953 1954 1
2526 1954 1955 1
2527 1954 1956 1
2528 1955 3428 1
2529 1956 3374 1
2530 1957 1958 1
2531 1957 1960 1
2532 1957 1959 1
2533 1958 3437 1
2534 1959 3383 1
2535 1960 1961 1
2536 1961 1995 1
2537 1961 1962 1
2538 1963 1972 1
2539 1963 1975 1
2540 1964 1967 1
2541 1964 1965 1
2542 1964 1968 1
2543 1965 1966 1
2544 1966 2004 1
2545 1966 1969 1
2546 1966 1985 1
2547 1967 3442 1
2548 1968 3424 1
2549 1969 1970 1
2550 1970 2010 1
2551 1970 1971 1
2552 1970 1991 1
2553 1971 1972 1
2554 1972 1973 1
2555 1972 1974 1
2556 1973 3446 1
2557 1974 3428 1
2558 1975 1976 1
2559 1975 1978 1
2560 1975 1977 1
2561 1976 3455 1
2562 1977 3437 1
2563 1978 1979 1
2564 1979 2013 1
2565 1979 1980 1
2566 1979 1994 1
2567 1981 1990 1
2568 1981 1993 1
2569 1982 1985 1
2570 1982 1983 1
2571 1982 1986 1
2572 1983 1984 1
2573 1984 2328 1
2574 1984 1987 1
2575 1984 2309 1
2576 1987 1988 1
2577 1988 2334 1
2578 1988 1989 1
2579 1988 2315 1
2580 1989 1990 1
2581 1990 1991 1
2582 1990 1992 1
2583 1993 1994 1
2584 1993 1996 1
2585 1993 1995 1
2586 1996 1997 1
2587 1997 2337 1
2588 1997 1998 1
2589 1997 2318 1
2590 1999 2008 1
2591 1999 2011 1
2592 2000 2003 1
2593 2000 2001 1
2594 2000 2004 1
2595 2001 2002 1
2596 2002 2382 1
2597 2002 2005 1
2598 2002 2327 1
2599 2003 2020 1
2600 2005 2006 1
2601 2006 2388 1
2602 2006 2007 1
2603 2006 2333 1
2604 2007 2008 1
2605 2008 2009 1
2606 2008 2010 1
2607 2009 2024 1
2608 2011 2012 1
2609 2011 2014 1
2610 2011 2013 1
2611 2012 2033 1
2612 2014 2015 1
2613 2015 2391 1
2614 2015 2016 1
2615 2015 2336 1
2616 2017 2026 1
2617 2017 2029 1
2618 2018 2021 1
2619 2018 2019 1
2620 2018 2022 1
2621 2019 2020 1
2622 2020 2058 1
2623 2020 2023 1
2624 2021 3496 1
2625 2022 3442 1
2626 2023 2024 1
2627 2024 2064 1
2628 2024 2025 1
2629 2025 2026 1
2630 2026 2027 1
2631 2026 2028 1
2632 2027 3500 1
2633 2028 3446 1
2634 2029 2030 1
2635 2029 2032 1
2636 2029 2031 1
2637 2030 3509 1
2638 2031 3455 1
2639 2032 2033 1
2640 2033 2067 1
2641 2033 2034 1
2642 2035 2044 1
2643 2035 2047 1
2644 2036 2039 1
2645 2036 2037 1
2646 2036 2040 1
2647 2037 2038 1
2648 2038 2076 1
2649 2038 2041 1
2650 2038 2057 1
2651 2039 3514 1
2652 2040 3496 1
2653 2041 2042 1
2654 2042 2082 1
2655 2042 2043 1
2656 2042 2063 1
2657 2043 2044 1
2658 2044 2045 1
2659 2044 2046 1
2660 2045 3518 1
2661 2046 3500 1
2662 2047 2048 1
2663 2047 2050 1
2664 2047 2049 1
2665 2048 3527 1
2666 2049 3509 1
2667 2050 2051 1
2668 2051 2085 1
2669 2051 2052 1
2670 2051 2066 1
2671 2053 2062 1
2672 2053 2065 1
2673 2054 2057 1
2674 2054 2055 1
2675 2054 2058 1
2676 2055 2056 1
2677 2056 2400 1
2678 2056 2059 1
2679 2056 2381 1
2680 2059 2060 1
2681 2060 2406 1
2682 2060 2061 1
2683 2060 2387 1
2684 2061 2062 1
2685 2062 2063 1
2686 2062 2064 1
2687 2065 2066 1
2688 2065 2068 1
2689 2065 2067 1
2690 2068 2069 1
2691 2069 2409 1
2692 2069 2070 1
2693 2069 2390 1
2694 2071 2080 1
2695 2071 2083 1
2696 2072 2076 1
2697 2072 2073 1
2698 2072 2075 1
2699 2073 2074 1
2700 2074 2399 1
2701 2074 2077 1
2702 2074 2454 1
2703 2075 2092 1
2704 2077 2078 1
2705 2078 2405 1
2706 2078 2079 1
2707 2078 2460 1
2708 2079 2080 1
2709 2080 2082 1
2710 2080 2081 1
2711 2081 2096 1
2712 2083 2085 1
2713 2083 2086 1
2714 2083 2084 1
2715 2084 2105 1
2716 2086 2087 1
2717 2087 2408 1
2718 2087 2088 1
2719 2087 2463 1
2720 2089 2098 1
2721 2089 2101 1
2722 2090 2094 1
2723 2090 2091 1
2724 2090 2093 1
2725 2091 2092 1
2726 2092 2095 1
2727 2092 2130 1
2728 2093 3568 1
2729 2094 3514 1
2730 2095 2096 1
2731 2096 2097 1
2732 2096 2136 1
2733 2097 2098 1
2734 2098 2100 1
2735 2098 2099 1
2736 2099 3572 1
2737 2100 3518 1
2738 2101 2103 1
2739 2101 2104 1
2740 2101 2102 1
2741 2102 3581 1
2742 2103 3527 1
2743 2104 2105 1
2744 2105 2106 1
2745 2105 2139 1
2746 2107 2116 1
2747 2107 2119 1
2748 2108 2112 1
2749 2108 2109 1
2750 2108 2111 1
2751 2109 2110 1
2752 2110 2129 1
2753 2110 2113 1
2754 2110 2148 1
2755 2111 3586 1
2756 2112 3568 1
2757 2113 2114 1
2758 2114 2135 1
2759 2114 2115 1
2760 2114 2154 1
2761 2115 2116 1
2762 2116 2118 1
2763 2116 2117 1
2764 2117 3590 1
2765 2118 3572 1
2766 2119 2121 1
2767 2119 2122 1
2768 2119 2120 1
2769 2120 3599 1
2770 2121 3581 1
2771 2122 2123 1
2772 2123 2138 1
2773 2123 2124 1
2774 2123 2157 1
2775 2125 2134 1
2776 2125 2137 1
2777 2126 2130 1
2778 2126 2127 1
2779 2126 2129 1
2780 2127 2128 1
2781 2128 2453 1
2782 2128 2131 1
2783 2128 2472 1
2784 2131 2132 1
2785 2132 2459 1
2786 2132 2133 1
2787 2132 2478 1
2788 2133 2134 1
2789 2134 2136 1
2790 2134 2135 1
2791 2137 2139 1
2792 2137 2140 1
2793 2137 2138 1
2794 2140 2141 1
2795 2141 2462 1
2796 2141 2142 1
2797 2141 2481 1
2798 2143 2152 1
2799 2143 2155 1
2800 2144 2148 1
2801 2144 2145 1
2802 2144 2147 1
2803 2145 2146 1
2804 2146 2471 1
2805 2146 2149 1
2806 2146 2166 1
2807 2149 2150 1
2808 2150 2477 1
2809 2150 2151 1
2810 2150 2172 1
2811 2151 2152 1
2812 2152 2154 1
2813 2152 2153 1
2814 2155 2157 1
2815 2155 2158 1
2816 2155 2156 1
2817 2158 2159 1
2818 2159 2480 1
2819 2159 2160 1
2820 2159 2175 1
2821 2161 2170 1
2822 2161 2173 1
2823 2162 2163 1
2824 2162 2165 1
2825 2162 2166 1
2826 2163 2164 1
2827 2164 2202 1
2828 2164 2167 1
2829 2164 2507 1
2830 2167 2168 1
2831 2168 2208 1
2832 2168 2169 1
2833 2168 2513 1
2834 2169 2170 1
2835 2170 2171 1
2836 2170 2172 1
2837 2173 2176 1
2838 2173 2174 1
2839 2173 2175 1
2840 2176 2177 1
2841 2177 2211 1
2842 2177 2178 1
2843 2177 2516 1
2844 2179 2188 1
2845 2179 2191 1
2846 2180 2181 1
2847 2180 2184 1
2848 2180 2183 1
2849 2181 2182 1
2850 2182 2201 1
2851 2182 2220 1
2852 2182 2185 1
2853 2185 2186 1
2854 2186 2207 1
2855 2186 2226 1
2856 2186 2187 1
2857 2187 2188 1
2858 2188 2190 1
2859 2188 2189 1
2860 2191 2194 1
2861 2191 2193 1
2862 2191 2192 1
2863 2194 2195 1
2864 2195 2210 1
2865 2195 2229 1
2866 2195 2196 1
2867 2197 2206 1
2868 2197 2209 1
2869 2198 2199 1
2870 2198 2201 1
2871 2198 2202 1
2872 2199 2200 1
2873 2200 2544 1
2874 2200 2525 1
2875 2200 2203 1
2876 2203 2204 1
2877 2204 2205 1
2878 2204 2550 1
2879 2204 2531 1
2880 2205 2206 1
2881 2206 2207 1
2882 2206 2208 1
2883 2209 2212 1
2884 2209 2210 1
2885 2209 2211 1
2886 2212 2213 1
2887 2213 2553 1
2888 2213 2534 1
2889 2213 2214 1
2890 2215 2224 1
2891 2215 2227 1
2892 2216 2217 1
2893 2216 2219 1
2894 2216 2220 1
2895 2217 2218 1
2896 2218 2598 1
2897 2218 2543 1
2898 2218 2221 1
2899 2219 2236 1
2900 2221 2222 1
2901 2222 2223 1
2902 2222 2604 1
2903 2222 2549 1
2904 2223 2224 1
2905 2224 2225 1
2906 2224 2226 1
2907 2225 2240 1
2908 2227 2230 1
2909 2227 2228 1
2910 2227 2229 1
2911 2228 2249 1
2912 2230 2231 1
2913 2231 2607 1
2914 2231 2552 1
2915 2231 2232 1
2916 2233 2242 1
2917 2233 2245 1
2918 2234 2235 1
2919 2234 2238 1
2920 2234 2237 1
2921 2235 2236 1
2922 2236 2239 1
2923 2236 2274 1
2924 2239 2240 1
2925 2240 2280 1
2926 2240 2241 1
2927 2241 2242 1
2928 2242 2244 1
2929 2242 2243 1
2930 2245 2248 1
2931 2245 2247 1
2932 2245 2246 1
2933 2248 2249 1
2934 2249 2250 1
2935 2249 2283 1
2936 2251 2260 1
2937 2251 2263 1
2938 2252 2256 1
2939 2252 2253 1
2940 2252 2255 1
2941 2253 2254 1
2942 2254 2273 1
2943 2254 2257 1
2944 2254 2292 1
2945 2257 2258 1
2946 2258 2279 1
2947 2258 2298 1
2948 2258 2259 1
2949 2259 2260 1
2950 2260 2262 1
2951 2260 2261 1
2952 2263 2265 1
2953 2263 2266 1
2954 2263 2264 1
2955 2266 2267 1
2956 2267 2282 1
2957 2267 2268 1
2958 2267 2301 1
2959 2269 2278 1
2960 2269 2281 1
2961 2270 2274 1
2962 2270 2271 1
2963 2270 2273 1
2964 2271 2272 1
2965 2272 2597 1
2966 2272 2275 1
2967 2272 2616 1
2968 2275 2276 1
2969 2276 2603 1
2970 2276 2277 1
2971 2276 2622 1
2972 2277 2278 1
2973 2278 2280 1
2974 2278 2279 1
2975 2281 2283 1
2976 2281 2284 1
2977 2281 2282 1
2978 2284 2285 1
2979 2285 2606 1
2980 2285 2286 1
2981 2285 2625 1
2982 2287 2296 1
2983 2287 2299 1
2984 2288 2291 1
2985 2288 2292 1
2986 2288 2289 1
2987 2289 2290 1
2988 2290 2615 1
2989 2290 2670 1
2990 2290 2293 1
2991 2291 2308 1
2992 2293 2294 1
2993 2294 2621 1
2994 2294 2676 1
2995 2294 2295 1
2996 2295 2296 1
2997 2296 2297 1
2998 2296 2298 1
2999 2297 2312 1
3000 2299 2300 1
3001 2299 2301 1
3002 2299 2302 1
3003 2300 2321 1
3004 2302 2303 1
3005 2303 2624 1
3006 2303 2679 1
3007 2303 2304 1
3008 2305 2314 1
3009 2305 2317 1
3010 2306 2309 1
3011 2306 2307 1
3012 2306 2310 1
3013 2307 2308 1
3014 2308 2346 1
3015 2308 2311 1
3016 2311 2312 1
3017 2312 2352 1
3018 2312 2313 1
3019 2313 2314 1
3020 2314 2315 1
3021 2314 2316 1
3022 2317 2318 1
3023 2317 2320 1
3024 2317 2319 1
3025 2320 2321 1
3026 2321 2355 1
3027 2321 2322 1
3028 2323 2332 1
3029 2323 2335 1
3030 2324 2327 1
3031 2324 2325 1
3032 2324 2328 1
3033 2325 2326 1
3034 2326 2364 1
3035 2326 2329 1
3036 2326 2345 1
3037 2329 2330 1
3038 2330 2370 1
3039 2330 2351 1
3040 2330 2331 1
3041 2331 2332 1
3042 2332 2333 1
3043 2332 2334 1
3044 2335 2336 1
3045 2335 2338 1
3046 2335 2337 1
3047 2338 2339 1
3048 2339 2373 1
3049 2339 2340 1
3050 2339 2354 1
3051 2341 2350 1
3052 2341 2353 1
3053 2342 2345 1
3054 2342 2343 1
3055 2342 2346 1
3056 2343 2344 1
3057 2344 2688 1
3058 2344 2347 1
3059 2344 2669 1
3060 2347 2348 1
3061 2348 2694 1
3062 2348 2349 1
3063 2348 2675 1
3064 2349 2350 1
3065 2350 2351 1
3066 2350 2352 1
3067 2353 2354 1
3068 2353 2356 1
3069 2353 2355 1
3070 2356 2357 1
3071 2357 2697 1
3072 2357 2358 1
3073 2357 2678 1
3074 2359 2368 1
3075 2359 2371 1
3076 2360 2363 1
3077 2360 2361 1
3078 2360 2364 1
3079 2361 2362 1
3080 2362 2742 1
3081 2362 2365 1
3082 2362 2687 1
3083 2363 2380 1
3084 2365 2366 1
3085 2366 2748 1
3086 2366 2367 1
3087 2366 2693 1
3088 2367 2368 1
3089 2368 2369 1
3090 2368 2370 1
3091 2369 2384 1
3092 2371 2372 1
3093 2371 2374 1
3094 2371 2373 1
3095 2372 2393 1
3096 2374 2375 1
3097 2375 2751 1
3098 2375 2376 1
3099 2375 2696 1
3100 2377 2386 1
3101 2377 2389 1
3102 2378 2381 1
3103 2378 2379 1
3104 2378 2382 1
3105 2379 2380 1
3106 2380 2418 1
3107 2380 2383 1
3108 2383 2384 1
3109 2384 2424 1
3110 2384 2385 1
3111 2385 2386 1
3112 2386 2387 1
3113 2386 2388 1
3114 2389 2390 1
3115 2389 2392 1
3116 2389 2391 1
3117 2392 2393 1
3118 2393 2427 1
3119 2393 2394 1
3120 2395 2404 1
3121 2395 2407 1
3122 2396 2399 1
3123 2396 2397 1
3124 2396 2400 1
3125 2397 2398 1
3126 2398 2436 1
3127 2398 2401 1
3128 2398 2417 1
3129 2401 2402 1
3130 2402 2442 1
3131 2402 2423 1
3132 2402 2403 1
3133 2403 2404 1
3134 2404 2405 1
3135 2404 2406 1
3136 2407 2408 1
3137 2407 2410 1
3138 2407 2409 1
3139 2410 2411 1
3140 2411 2445 1
3141 2411 2412 1
3142 2411 2426 1
3143 2413 2422 1
3144 2413 2425 1
3145 2414 2417 1
3146 2414 2415 1
3147 2414 2418 1
3148 2415 2416 1
3149 2416 2760 1
3150 2416 2419 1
3151 2416 2741 1
3152 2419 2420 1
3153 2420 2766 1
3154 2420 2421 1
3155 2420 2747 1
3156 2421 2422 1
3157 2422 2423 1
3158 2422 2424 1
3159 2425 2426 1
3160 2425 2428 1
3161 2425 2427 1
3162 2428 2429 1
3163 2429 2769 1
3164 2429 2430 1
3165 2429 2750 1
3166 2431 2440 1
3167 2431 2443 1
3168 2432 2436 1
3169 2432 2433 1
3170 2432 2435 1
3171 2433 2434 1
3172 2434 2759 1
3173 2434 2437 1
3174 2434 2814 1
3175 2435 2452 1
3176 2437 2438 1
3177 2438 2765 1
3178 2438 2439 1
3179 2438 2820 1
3180 2439 2440 1
3181 2440 2442 1
3182 2440 2441 1
3183 2441 2456 1
3184 2443 2445 1
3185 2443 2446 1
3186 2443 2444 1
3187 2444 2465 1
3188 2446 2447 1
3189 2447 2768 1
3190 2447 2448 1
3191 2447 2823 1
3192 2449 2458 1
3193 2449 2461 1
3194 2450 2454 1
3195 2450 2451 1
3196 2450 2453 1
3197 2451 2452 1
3198 2452 2455 1
3199 2452 2490 1
3200 2455 2456 1
3201 2456 2496 1
3202 2456 2457 1
3203 2457 2458 1
3204 2458 2460 1
3205 2458 2459 1
3206 2461 2463 1
3207 2461 2464 1
3208 2461 2462 1
3209 2464 2465 1
3210 2465 2466 1
3211 2465 2499 1
3212 2467 2476 1
3213 2467 2479 1
3214 2468 2472 1
3215 2468 2469 1
3216 2468 2471 1
3217 2469 2470 1
3218 2470 2489 1
3219 2470 2473 1
3220 2470 2508 1
3221 2473 2474 1
3222 2474 2495 1
3223 2474 2514 1
3224 2474 2475 1
3225 2475 2476 1
3226 2476 2478 1
3227 2476 2477 1
3228 2479 2481 1
3229 2479 2482 1
3230 2479 2480 1
3231 2482 2483 1
3232 2483 2498 1
3233 2483 2484 1
3234 2483 2517 1
3235 2485 2494 1
3236 2485 2497 1
3237 2486 2490 1
3238 2486 2487 1
3239 2486 2489 1
3240 2487 2488 1
3241 2488 2813 1
3242 2488 2491 1
3243 2488 2832 1
3244 2491 2492 1
3245 2492 2819 1
3246 2492 2493 1
3247 2492 2838 1
3248 2493 2494 1
3249 2494 2496 1
3250 2494 2495 1
3251 2497 2499 1
3252 2497 2500 1
3253 2497 2498 1
3254 2500 2501 1
3255 2501 2822 1
3256 2501 2502 1
3257 2501 2841 1
3258 2503 2512 1
3259 2503 2515 1
3260 2504 2508 1
3261 2504 2505 1
3262 2504 2507 1
3263 2505 2506 1
3264 2506 2831 1
3265 2506 2509 1
3266 2506 2526 1
3267 2509 2510 1
3268 2510 2837 1
3269 2510 2511 1
3270 2510 2532 1
3271 2511 2512 1
3272 2512 2514 1
3273 2512 2513 1
3274 2515 2517 1
3275 2515 2518 1
3276 2515 2516 1
3277 2518 2519 1
3278 2519 2840 1
3279 2519 2520 1
3280 2519 2535 1
3281 2521 2530 1
3282 2521 2533 1
3283 2522 2523 1
3284 2522 2525 1
3285 2522 2526 1
3286 2523 2524 1
3287 2524 2562 1
3288 2524 2527 1
3289 2524 2867 1
3290 2527 2528 1
3291 2528 2568 1
3292 2528 2529 1
3293 2528 2873 1
3294 2529 2530 1
3295 2530 2531 1
3296 2530 2532 1
3297 2533 2536 1
3298 2533 2534 1
3299 2533 2535 1
3300 2536 2537 1
3301 2537 2571 1
3302 2537 2538 1
3303 2537 2876 1
3304 2539 2548 1
3305 2539 2551 1
3306 2540 2541 1
3307 2540 2544 1
3308 2540 2543 1
3309 2541 2542 1
3310 2542 2561 1
3311 2542 2580 1
3312 2542 2545 1
3313 2545 2546 1
3314 2546 2567 1
3315 2546 2586 1
3316 2546 2547 1
3317 2547 2548 1
3318 2548 2550 1
3319 2548 2549 1
3320 2551 2554 1
3321 2551 2553 1
3322 2551 2552 1
3323 2554 2555 1
3324 2555 2570 1
3325 2555 2589 1
3326 2555 2556 1
3327 2557 2566 1
3328 2557 2569 1
3329 2558 2559 1
3330 2558 2561 1
3331 2558 2562 1
3332 2559 2560 1
3333 2560 2904 1
3334 2560 2885 1
3335 2560 2563 1
3336 2563 2564 1
3337 2564 2565 1
3338 2564 2910 1
3339 2564 2891 1
3340 2565 2566 1
3341 2566 2567 1
3342 2566 2568 1
3343 2569 2572 1
3344 2569 2570 1
3345 2569 2571 1
3346 2572 2573 1
3347 2573 2913 1
3348 2573 2894 1
3349 2573 2574 1
3350 2575 2584 1
3351 2575 2587 1
3352 2576 2577 1
3353 2576 2579 1
3354 2576 2580 1
3355 2577 2578 1
3356 2578 2958 1
3357 2578 2903 1
3358 2578 2581 1
3359 2579 2596 1
3360 2581 2582 1
3361 2582 2583 1
3362 2582 2964 1
3363 2582 2909 1
3364 2583 2584 1
3365 2584 2585 1
3366 2584 2586 1
3367 2585 2600 1
3368 2587 2590 1
3369 2587 2588 1
3370 2587 2589 1
3371 2588 2609 1
3372 2590 2591 1
3373 2591 2967 1
3374 2591 2912 1
3375 2591 2592 1
3376 2593 2602 1
3377 2593 2605 1
3378 2594 2598 1
3379 2594 2595 1
3380 2594 2597 1
3381 2595 2596 1
3382 2596 2599 1
3383 2596 2634 1
3384 2599 2600 1
3385 2600 2640 1
3386 2600 2601 1
3387 2601 2602 1
3388 2602 2604 1
3389 2602 2603 1
3390 2605 2607 1
3391 2605 2608 1
3392 2605 2606 1
3393 2608 2609 1
3394 2609 2610 1
3395 2609 2643 1
3396 2611 2620 1
3397 2611 2623 1
3398 2612 2616 1
3399 2612 2613 1
3400 2612 2615 1
3401 2613 2614 1
3402 2614 2633 1
3403 2614 2617 1
3404 2614 2652 1
3405 2617 2618 1
3406 2618 2639 1
3407 2618 2658 1
3408 2618 2619 1
3409 2619 2620 1
3410 2620 2622 1
3411 2620 2621 1
3412 2623 2625 1
3413 2623 2626 1
3414 2623 2624 1
3415 2626 2627 1
3416 2627 2642 1
3417 2627 2628 1
3418 2627 2661 1
3419 2629 2638 1
3420 2629 2641 1
3421 2630 2634 1
3422 2630 2631 1
3423 2630 2633 1
3424 2631 2632 1
3425 2632 2957 1
3426 2632 2635 1
3427 2632 2976 1
3428 2635 2636 1
3429 2636 2963 1
3430 2636 2637 1
3431 2636 2982 1
3432 2637 2638 1
3433 2638 2640 1
3434 2638 2639 1
3435 2641 2643 1
3436 2641 2644 1
3437 2641 2642 1
3438 2644 2645 1
3439 2645 2966 1
3440 2645 2646 1
3441 2645 2985 1
3442 2647 2656 1
3443 2647 2659 1
3444 2648 2651 1
3445 2648 2652 1
3446 2648 2649 1
3447 2649 2650 1
3448 2650 2975 1
3449 2650 3030 1
3450 2650 2653 1
3451 2651 2668 1
3452 2653 2654 1
3453 2654 2981 1
3454 2654 3036 1
3455 2654 2655 1
3456 2655 2656 1
3457 2656 2657 1
3458 2656 2658 1
3459 2657 2672 1
3460 2659 2660 1
3461 2659 2661 1
3462 2659 2662 1
3463 2660 2681 1
3464 2662 2663 1
3465 2663 2984 1
3466 2663 3039 1
3467 2663 2664 1
3468 2665 2674 1
3469 2665 2677 1
3470 2666 2669 1
3471 2666 2667 1
3472 2666 2670 1
3473 2667 2668 1
3474 2668 2706 1
3475 2668 2671 1
3476 2671 2672 1
3477 2672 2712 1
3478 2672 2673 1
3479 2673 2674 1
3480 2674 2675 1
3481 2674 2676 1
3482 2677 2678 1
3483 2677 2680 1
3484 2677 2679 1
3485 2680 2681 1
3486 2681 2715 1
3487 2681 2682 1
3488 2683 2692 1
3489 2683 2695 1
3490 2684 2687 1
3491 2684 2685 1
3492 2684 2688 1
3493 2685 2686 1
3494 2686 2724 1
3495 2686 2689 1
3496 2686 2705 1
3497 2689 2690 1
3498 2690 2730 1
3499 2690 2711 1
3500 2690 2691 1
3501 2691 2692 1
3502 2692 2693 1
3503 2692 2694 1
3504 2695 2696 1
3505 2695 2698 1
3506 2695 2697 1
3507 2698 2699 1
3508 2699 2733 1
3509 2699 2700 1
3510 2699 2714 1
3511 2701 2710 1
3512 2701 2713 1
3513 2702 2705 1
3514 2702 2703 1
3515 2702 2706 1
3516 2703 2704 1
3517 2704 3048 1
3518 2704 2707 1
3519 2704 3029 1
3520 2707 2708 1
3521 2708 3054 1
3522 2708 2709 1
3523 2708 3035 1
3524 2709 2710 1
3525 2710 2711 1
3526 2710 2712 1
3527 2713 2714 1
3528 2713 2716 1
3529 2713 2715 1
3530 2716 2717 1
3531 2717 3057 1
3532 2717 2718 1
3533 2717 3038 1
3534 2719 2728 1
3535 2719 2731 1
3536 2720 2723 1
3537 2720 2721 1
3538 2720 2724 1
3539 2721 2722 1
3540 2722 3102 1
3541 2722 2725 1
3542 2722 3047 1
3543 2723 2740 1
3544 2725 2726 1
3545 2726 3108 1
3546 2726 2727 1
3547 2726 3053 1
3548 2727 2728 1
3549 2728 2729 1
3550 2728 2730 1
3551 2729 2744 1
3552 2731 2732 1
3553 2731 2734 1
3554 2731 2733 1
3555 2732 2753 1
3556 2734 2735 1
3557 2735 3111 1
3558 2735 2736 1
3559 2735 3056 1
3560 2737 2746 1
3561 2737 2749 1
3562 2738 2741 1
3563 2738 2739 1
3564 2738 2742 1
3565 2739 2740 1
3566 2740 2778 1
3567 2740 2743 1
3568 2743 2744 1
3569 2744 2784 1
3570 2744 2745 1
3571 2745 2746 1
3572 2746 2747 1
3573 2746 2748 1
3574 2749 2750 1
3575 2749 2752 1
3576 2749 2751 1
3577 2752 2753 1
3578 2753 2787 1
3579 2753 2754 1
3580 2755 2764 1
3581 2755 2767 1
3582 2756 2759 1
3583 2756 2757 1
3584 2756 2760 1
3585 2757 2758 1
3586 2758 2796 1
3587 2758 2761 1
3588 2758 2777 1
3589 2761 2762 1
3590 2762 2802 1
3591 2762 2783 1
3592 2762 2763 1
3593 2763 2764 1
3594 2764 2765 1
3595 2764 2766 1
3596 2767 2768 1
3597 2767 2770 1
3598 2767 2769 1
3599 2770 2771 1
3600 2771 2805 1
3601 2771 2772 1
3602 2771 2786 1
3603 2773 2782 1
3604 2773 2785 1
3605 2774 2777 1
3606 2774 2775 1
3607 2774 2778 1
3608 2775 2776 1
3609 2776 3120 1
3610 2776 2779 1
3611 2776 3101 1
3612 2779 2780 1
3613 2780 3126 1
3614 2780 2781 1
3615 2780 3107 1
3616 2781 2782 1
3617 2782 2783 1
3618 2782 2784 1
3619 2785 2786 1
3620 2785 2788 1
3621 2785 2787 1
3622 2788 2789 1
3623 2789 3129 1
3624 2789 2790 1
3625 2789 3110 1
3626 2791 2800 1
3627 2791 2803 1
3628 2792 2796 1
3629 2792 2793 1
3630 2792 2795 1
3631 2793 2794 1
3632 2794 3119 1
3633 2794 2797 1
3634 2794 3174 1
3635 2795 2812 1
3636 2797 2798 1
3637 2798 3125 1
3638 2798 2799 1
3639 2798 3180 1
3640 2799 2800 1
3641 2800 2802 1
3642 2800 2801 1
3643 2801 2816 1
3644 2803 2805 1
3645 2803 2806 1
3646 2803 2804 1
3647 2804 2825 1
3648 2806 2807 1
3649 2807 3128 1
3650 2807 2808 1
3651 2807 3183 1
3652 2809 2818 1
3653 2809 2821 1
3654 2810 2814 1
3655 2810 2811 1
3656 2810 2813 1
3657 2811 2812 1
3658 2812 2815 1
3659 2812 2850 1
3660 2815 2816 1
3661 2816 2856 1
3662 2816 2817 1
3663 2817 2818 1
3664 2818 2820 1
3665 2818 2819 1
3666 2821 2823 1
3667 2821 2824 1
3668 2821 2822 1
3669 2824 2825 1
3670 2825 2826 1
3671 2825 2859 1
3672 2827 2836 1
3673 2827 2839 1
3674 2828 2832 1
3675 2828 2829 1
3676 2828 2831 1
3677 2829 2830 1
3678 2830 2849 1
3679 2830 2833 1
3680 2830 2868 1
3681 2833 2834 1
3682 2834 2855 1
3683 2834 2874 1
3684 2834 2835 1
3685 2835 2836 1
3686 2836 2838 1
3687 2836 2837 1
3688 2839 2841 1
3689 2839 2842 1
3690 2839 2840 1
3691 2842 2843 1
3692 2843 2858 1
3693 2843 2844 1
3694 2843 2877 1
3695 2845 2854 1
3696 2845 2857 1
3697 2846 2850 1
3698 2846 2847 1
3699 2846 2849 1
3700 2847 2848 1
3701 2848 3173 1
3702 2848 2851 1
3703 2848 3192 1
3704 2851 2852 1
3705 2852 3179 1
3706 2852 2853 1
3707 2852 3198 1
3708 2853 2854 1
3709 2854 2856 1
3710 2854 2855 1
3711 2857 2859 1
3712 2857 2860 1
3713 2857 2858 1
3714 2860 2861 1
3715 2861 3182 1
3716 2861 2862 1
3717 2861 3201 1
3718 2863 2872 1
3719 2863 2875 1
3720 2864 2868 1
3721 2864 2865 1
3722 2864 2867 1
3723 2865 2866 1
3724 2866 3191 1
3725 2866 2869 1
3726 2866 2886 1
3727 2869 2870 1
3728 2870 3197 1
3729 2870 2871 1
3730 2870 2892 1
3731 2871 2872 1
3732 2872 2874 1
3733 2872 2873 1
3734 2875 2877 1
3735 2875 2878 1
3736 2875 2876 1
3737 2878 2879 1
3738 2879 3200 1
3739 2879 2880 1
3740 2879 2895 1
3741 2881 2890 1
3742 2881 2893 1
3743 2882 2883 1
3744 2882 2885 1
3745 2882 2886 1
3746 2883 2884 1
3747 2884 2922 1
3748 2884 2887 1
3749 2884 3227 1
3750 2887 2888 1
3751 2888 2928 1
3752 2888 2889 1
3753 2888 3233 1
3754 2889 2890 1
3755 2890 2891 1
3756 2890 2892 1
3757 2893 2896 1
3758 2893 2894 1
3759 2893 2895 1
3760 2896 2897 1
3761 2897 2931 1
3762 2897 2898 1
3763 2897 3236 1
3764 2899 2908 1
3765 2899 2911 1
3766 2900 2901 1
3767 2900 2904 1
3768 2900 2903 1
3769 2901 2902 1
3770 2902 2921 1
3771 2902 2940 1
3772 2902 2905 1
3773 2905 2906 1
3774 2906 2927 1
3775 2906 2946 1
3776 2906 2907 1
3777 2907 2908 1
3778 2908 2910 1
3779 2908 2909 1
3780 2911 2914 1
3781 2911 2913 1
3782 2911 2912 1
3783 2914 2915 1
3784 2915 2930 1
3785 2915 2949 1
3786 2915 2916 1
3787 2917 2926 1
3788 2917 2929 1
3789 2918 2919 1
3790 2918 2921 1
3791 2918 2922 1
3792 2919 2920 1
3793 2920 3264 1
3794 2920 3245 1
3795 2920 2923 1
3796 2923 2924 1
3797 2924 2925 1
3798 2924 3270 1
3799 2924 3251 1
3800 2925 2926 1
3801 2926 2927 1
3802 2926 2928 1
3803 2929 2932 1
3804 2929 2930 1
3805 2929 2931 1
3806 2932 2933 1
3807 2933 3273 1
3808 2933 3254 1
3809 2933 2934 1
3810 2935 2944 1
3811 2935 2947 1
3812 2936 2937 1
3813 2936 2939 1
3814 2936 2940 1
3815 2937 2938 1
3816 2938 3318 1
3817 2938 3263 1
3818 2938 2941 1
3819 2939 2956 1
3820 2941 2942 1
3821 2942 2943 1
3822 2942 3324 1
3823 2942 3269 1
3824 2943 2944 1
3825 2944 2945 1
3826 2944 2946 1
3827 2945 2960 1
3828 2947 2950 1
3829 2947 2948 1
3830 2947 2949 1
3831 2948 2969 1
3832 2950 2951 1
3833 2951 3327 1
3834 2951 3272 1
3835 2951 2952 1
3836 2953 2962 1
3837 2953 2965 1
3838 2954 2958 1
3839 2954 2955 1
3840 2954 2957 1
3841 2955 2956 1
3842 2956 2959 1
3843 2956 2994 1
3844 2959 2960 1
3845 2960 3000 1
3846 2960 2961 1
3847 2961 2962 1
3848 2962 2964 1
3849 2962 2963 1
3850 2965 2967 1
3851 2965 2968 1
3852 2965 2966 1
3853 2968 2969 1
3854 2969 2970 1
3855 2969 3003 1
3856 2971 2980 1
3857 2971 2983 1
3858 2972 2976 1
3859 2972 2973 1
3860 2972 2975 1
3861 2973 2974 1
3862 2974 2993 1
3863 2974 2977 1
3864 2974 3012 1
3865 2977 2978 1
3866 2978 2999 1
3867 2978 3018 1
3868 2978 2979 1
3869 2979 2980 1
3870 2980 2982 1
3871 2980 2981 1
3872 2983 2985 1
3873 2983 2986 1
3874 2983 2984 1
3875 2986 2987 1
3876 2987 3002 1
3877 2987 2988 1
3878 2987 3021 1
3879 2989 2998 1
3880 2989 3001 1
3881 2990 2994 1
3882 2990 2991 1
3883 2990 2993 1
3884 2991 2992 1
3885 2992 3317 1
3886 2992 2995 1
3887 2992 3336 1
3888 2995 2996 1
3889 2996 3323 1
3890 2996 2997 1
3891 2996 3342 1
3892 2997 2998 1
3893 2998 3000 1
3894 2998 2999 1
3895 3001 3003 1
3896 3001 3004 1
3897 3001 3002 1
3898 3004 3005 1
3899 3005 3326 1
3900 3005 3006 1
3901 3005 3345 1
3902 3007 3016 1
3903 3007 3019 1
3904 3008 3011 1
3905 3008 3012 1
3906 3008 3009 1
3907 3009 3010 1
3908 3010 3335 1
3909 3010 3390 1
3910 3010 3013 1
3911 3011 3028 1
3912 3013 3014 1
3913 3014 3341 1
3914 3014 3396 1
3915 3014 3015 1
3916 3015 3016 1
3917 3016 3017 1
3918 3016 3018 1
3919 3017 3032 1
3920 3019 3020 1
3921 3019 3021 1
3922 3019 3022 1
3923 3020 3041 1
3924 3022 3023 1
3925 3023 3344 1
3926 3023 3399 1
3927 3023 3024 1
3928 3025 3034 1
3929 3025 3037 1
3930 3026 3029 1
3931 3026 3027 1
3932 3026 3030 1
3933 3027 3028 1
3934 3028 3066 1
3935 3028 3031 1
3936 3031 3032 1
3937 3032 3072 1
3938 3032 3033 1
3939 3033 3034 1
3940 3034 3035 1
3941 3034 3036 1
3942 3037 3038 1
3943 3037 3040 1
3944 3037 3039 1
3945 3040 3041 1
3946 3041 3075 1
3947 3041 3042 1
3948 3043 3052 1
3949 3043 3055 1
3950 3044 3047 1
3951 3044 3045 1
3952 3044 3048 1
3953 3045 3046 1
3954 3046 3084 1
3955 3046 3049 1
3956 3046 3065 1
3957 3049 3050 1
3958 3050 3090 1
3959 3050 3071 1
3960 3050 3051 1
3961 3051 3052 1
3962 3052 3053 1
3963 3052 3054 1
3964 3055 3056 1
3965 3055 3058 1
3966 3055 3057 1
3967 3058 3059 1
3968 3059 3093 1
3969 3059 3060 1
3970 3059 3074 1
3971 3061 3070 1
3972 3061 3073 1
3973 3062 3065 1
3974 3062 3063 1
3975 3062 3066 1
3976 3063 3064 1
3977 3064 3408 1
3978 3064 3067 1
3979 3064 3389 1
3980 3067 3068 1
3981 3068 3414 1
3982 3068 3069 1
3983 3068 3395 1
3984 3069 3070 1
3985 3070 3071 1
3986 3070 3072 1
3987 3073 3074 1
3988 3073 3076 1
3989 3073 3075 1
3990 3076 3077 1
3991 3077 3417 1
3992 3077 3078 1
3993 3077 3398 1
3994 3079 3088 1
3995 3079 3091 1
3996 3080 3083 1
3997 3080 3081 1
3998 3080 3084 1
3999 3081 3082 1
4000 3082 3462 1
4001 3082 3085 1
4002 3082 3407 1
4003 3083 3100 1
4004 3085 3086 1
4005 3086 3468 1
4006 3086 3087 1
4007 3086 3413 1
4008 3087 3088 1
4009 3088 3089 1
4010 3088 3090 1
4011 3089 3104 1
4012 3091 3092 1
4013 3091 3094 1
4014 3091 3093 1
4015 3092 3113 1
4016 3094 3095 1
4017 3095 3471 1
4018 3095 3096 1
4019 3095 3416 1
4020 3097 3106 1
4021 3097 3109 1
4022 3098 3101 1
4023 3098 3099 1
4024 3098 3102 1
4025 3099 3100 1
4026 3100 3138 1
4027 3100 3103 1
4028 3103 3104 1
4029 3104 3144 1
4030 3104 3105 1
4031 3105 3106 1
4032 3106 3107 1
4033 3106 3108 1
4034 3109 3110 1
4035 3109 3112 1
4036 3109 3111 1
4037 3112 3113 1
4038 3113 3147 1
4039 3113 3114 1
4040 3115 3124 1
4041 3115 3127 1
4042 3116 3119 1
4043 3116 3117 1
4044 3116 3120 1
4045 3117 3118 1
4046 3118 3156 1
4047 3118 3121 1
4048 3118 3137 1
4049 3121 3122 1
4050 3122 3162 1
4051 3122 3143 1
4052 3122 3123 1
4053 3123 3124 1
4054 3124 3125 1
4055 3124 3126 1
4056 3127 3128 1
4057 3127 3130 1
4058 3127 3129 1
4059 3130 3131 1
4060 3131 3165 1
4061 3131 3132 1
4062 3131 3146 1
4063 3133 3142 1
4064 3133 3145 1
4065 3134 3137 1
4066 3134 3135 1
4067 3134 3138 1
4068 3135 3136 1
4069 3136 3480 1
4070 3136 3139 1
4071 3136 3461 1
4072 3139 3140 1
4073 3140 3486 1
4074 3140 3141 1
4075 3140 3467 1
4076 3141 3142 1
4077 3142 3143 1
4078 3142 3144 1
4079 3145 3146 1
4080 3145 3148 1
4081 3145 3147 1
4082 3148 3149 1
4083 3149 3489 1
4084 3149 3150 1
4085 3149 3470 1
4086 3151 3160 1
4087 3151 3163 1
4088 3152 3156 1
4089 3152 3153 1
4090 3152 3155 1
4091 3153 3154 1
4092 3154 3479 1
4093 3154 3157 1
4094 3154 3534 1
4095 3155 3172 1
4096 3157 3158 1
4097 3158 3485 1
4098 3158 3159 1
4099 3158 3540 1
4100 3159 3160 1
4101 3160 3162 1
4102 3160 3161 1
4103 3161 3176 1
4104 3163 3165 1
4105 3163 3166 1
4106 3163 3164 1
4107 3164 3185 1
4108 3166 3167 1
4109 3167 3488 1
4110 3167 3168 1
4111 3167 3543 1
4112 3169 3178 1
4113 3169 3181 1
4114 3170 3174 1
4115 3170 3171 1
4116 3170 3173 1
4117 3171 3172 1
4118 3172 3175 1
4119 3172 3210 1
4120 3175 3176 1
4121 3176 3216 1
4122 3176 3177 1
4123 3177 3178 1
4124 3178 3180 1
4125 3178 3179 1
4126 3181 3183 1
4127 3181 3184 1
4128 3181 3182 1
4129 3184 3185 1
4130 3185 3186 1
4131 3185 3219 1
4132 3187 3196 1
4133 3187 3199 1
4134 3188 3192 1
4135 3188 3189 1
4136 3188 3191 1
4137 3189 3190 1
4138 3190 3209 1
4139 3190 3193 1
4140 3190 3228 1
4141 3193 3194 1
4142 3194 3215 1
4143 3194 3234 1
4144 3194 3195 1
4145 3195 3196 1
4146 3196 3198 1
4147 3196 3197 1
4148 3199 3201 1
4149 3199 3202 1
4150 3199 3200 1
4151 3202 3203 1
4152 3203 3218 1
4153 3203 3204 1
4154 3203 3237 1
4155 3205 3214 1
4156 3205 3217 1
4157 3206 3210 1
4158 3206 3207 1
4159 3206 3209 1
4160 3207 3208 1
4161 3208 3533 1
4162 3208 3211 1
4163 3208 3552 1
4164 3211 3212 1
4165 3212 3539 1
4166 3212 3213 1
4167 3212 3558 1
4168 3213 3214 1
4169 3214 3216 1
4170 3214 3215 1
4171 3217 3219 1
4172 3217 3220 1
4173 3217 3218 1
4174 3220 3221 1
4175 3221 3542 1
4176 3221 3222 1
4177 3221 3561 1
4178 3223 3232 1
4179 3223 3235 1
4180 3224 3228 1
4181 3224 3225 1
4182 3224 3227 1
4183 3225 3226 1
4184 3226 3551 1
4185 3226 3229 1
4186 3226 3246 1
4187 3229 3230 1
4188 3230 3557 1
4189 3230 3231 1
4190 3230 3252 1
4191 3231 3232 1
4192 3232 3234 1
4193 3232 3233 1
4194 3235 3237 1
4195 3235 3238 1
4196 3235 3236 1
4197 3238 3239 1
4198 3239 3560 1
4199 3239 3240 1
4200 3239 3255 1
4201 3241 3250 1
4202 3241 3253 1
4203 3242 3245 1
4204 3242 3246 1
4205 3242 3243 1
4206 3243 3244 1
4207 3244 3282 1
4208 3244 3247 1
4209 3244 3587 1
4210 3247 3248 1
4211 3248 3249 1
4212 3248 3288 1
4213 3248 3593 1
4214 3249 3250 1
4215 3250 3251 1
4216 3250 3252 1
4217 3253 3254 1
4218 3253 3255 1
4219 3253 3256 1
4220 3256 3257 1
4221 3257 3291 1
4222 3257 3258 1
4223 3257 3596 1
4224 3259 3268 1
4225 3259 3271 1
4226 3260 3264 1
4227 3260 3263 1
4228 3260 3261 1
4229 3261 3262 1
4230 3262 3281 1
4231 3262 3300 1
4232 3262 3265 1
4233 3265 3266 1
4234 3266 3267 1
4235 3266 3287 1
4236 3266 3306 1
4237 3267 3268 1
4238 3268 3270 1
4239 3268 3269 1
4240 3271 3273 1
4241 3271 3272 1
4242 3271 3274 1
4243 3274 3275 1
4244 3275 3290 1
4245 3275 3309 1
4246 3275 3276 1
4247 3277 3286 1
4248 3277 3289 1
4249 3278 3279 1
4250 3278 3281 1
4251 3278 3282 1
4252 3279 3280 1
4253 3280 3283 1
4254 3283 3284 1
4255 3284 3285 1
4256 3285 3286 1
4257 3286 3287 1
4258 3286 3288 1
4259 3289 3292 1
4260 3289 3290 1
4261 3289 3291 1
4262 3292 3293 1
4263 3293 3294 1
4264 3295 3304 1
4265 3295 3307 1
4266 3296 3297 1
4267 3296 3299 1
4268 3296 3300 1
4269 3297 3298 1
4270 3298 3301 1
4271 3299 3316 1
4272 3301 3302 1
4273 3302 3303 1
4274 3303 3304 1
4275 3304 3305 1
4276 3304 3306 1
4277 3305 3320 1
4278 3307 3310 1
4279 3307 3308 1
4280 3307 3309 1
4281 3308 3329 1
4282 3310 3311 1
4283 3311 3312 1
4284 3313 3322 1
4285 3313 3325 1
4286 3314 3318 1
4287 3314 3317 1
4288 3314 3315 1
4289 3315 3316 1
4290 3316 3319 1
4291 3316 3354 1
4292 3319 3320 1
4293 3320 3321 1
4294 3320 3360 1
4295 3321 3322 1
4296 3322 3324 1
4297 3322 3323 1
4298 3325 3327 1
4299 3325 3326 1
4300 3325 3328 1
4301 3328 3329 1
4302 3329 3330 1
4303 3329 3363 1
4304 3331 3340 1
4305 3331 3343 1
4306 3332 3336 1
4307 3332 3335 1
4308 3332 3333 1
4309 3333 3334 1
4310 3334 3353 1
4311 3334 3337 1
4312 3334 3372 1
4313 3337 3338 1
4314 3338 3359 1
4315 3338 3339 1
4316 3338 3378 1
4317 3339 3340 1
4318 3340 3342 1
4319 3340 3341 1
4320 3343 3345 1
4321 3343 3344 1
4322 3343 3346 1
4323 3346 3347 1
4324 3347 3362 1
4325 3347 3348 1
4326 3347 3381 1
4327 3349 3358 1
4328 3349 3361 1
4329 3350 3354 1
4330 3350 3351 1
4331 3350 3353 1
4332 3351 3352 1
4333 3352 3355 1
4334 3355 3356 1
4335 3356 3357 1
4336 3357 3358 1
4337 3358 3360 1
4338 3358 3359 1
4339 3361 3363 1
4340 3361 3364 1
4341 3361 3362 1
4342 3364 3365 1
4343 3365 3366 1
4344 3367 3376 1
4345 3367 3379 1
4346 3368 3371 1
4347 3368 3372 1
4348 3368 3369 1
4349 3369 3370 1
4350 3370 3373 1
4351 3371 3388 1
4352 3373 3374 1
4353 3374 3375 1
4354 3375 3376 1
4355 3376 3377 1
4356 3376 3378 1
4357 3377 3392 1
4358 3379 3380 1
4359 3379 3381 1
4360 3379 3382 1
4361 3380 3401 1
4362 3382 3383 1
4363 3383 3384 1
4364 3385 3394 1
4365 3385 3397 1
4366 3386 3389 1
4367 3386 3390 1
4368 3386 3387 1
4369 3387 3388 1
4370 3388 3426 1
4371 3388 3391 1
4372 3391 3392 1
4373 3392 3432 1
4374 3392 3393 1
4375 3393 3394 1
4376 3394 3395 1
4377 3394 3396 1
4378 3397 3398 1
4379 3397 3399 1
4380 3397 3400 1
4381 3400 3401 1
4382 3401 3435 1
4383 3401 3402 1
4384 3403 3412 1
4385 3403 3415 1
4386 3404 3407 1
4387 3404 3408 1
4388 3404 3405 1
4389 3405 3406 1
4390 3406 3444 1
4391 3406 3409 1
4392 3406 3425 1
4393 3409 3410 1
4394 3410 3450 1
4395 3410 3411 1
4396 3410 3431 1
4397 3411 3412 1
4398 3412 3413 1
4399 3412 3414 1
4400 3415 3416 1
4401 3415 3417 1
4402 3415 3418 1
4403 3418 3419 1
4404 3419 3453 1
4405 3419 3420 1
4406 3419 3434 1
4407 3421 3430 1
4408 3421 3433 1
4409 3422 3425 1
4410 3422 3423 1
4411 3422 3426 1
4412 3423 3424 1
4413 3424 3427 1
4414 3427 3428 1
4415 3428 3429 1
4416 3429 3430 1
4417 3430 3431 1
4418 3430 3432 1
4419 3433 3434 1
4420 3433 3436 1
4421 3433 3435 1
4422 3436 3437 1
4423 3437 3438 1
4424 3439 3448 1
4425 3439 3451 1
4426 3440 3443 1
4427 3440 3441 1
4428 3440 3444 1
4429 3441 3442 1
4430 3442 3445 1
4431 3443 3460 1
4432 3445 3446 1
4433 3446 3447 1
4434 3447 3448 1
4435 3448 3449 1
4436 3448 3450 1
4437 3449 3464 1
4438 3451 3452 1
4439 3451 3454 1
4440 3451 3453 1
4441 3452 3473 1
4442 3454 3455 1
4443 3455 3456 1
4444 3457 3466 1
4445 3457 3469 1
4446 3458 3461 1
4447 3458 3462 1
4448 3458 3459 1
4449 3459 3460 1
4450 3460 3498 1
4451 3460 3463 1
4452 3463 3464 1
4453 3464 3504 1
4454 3464 3465 1
4455 3465 3466 1
4456 3466 3467 1
4457 3466 3468 1
4458 3469 3470 1
4459 3469 3471 1
4460 3469 3472 1
4461 3472 3473 1
4462 3473 3507 1
4463 3473 3474 1
4464 3475 3484 1
4465 3475 3487 1
4466 3476 3479 1
4467 3476 3480 1
4468 3476 3477 1
4469 3477 3478 1
4470 3478 3516 1
4471 3478 3481 1
4472 3478 3497 1
4473 3481 3482 1
4474 3482 3522 1
4475 3482 3483 1
4476 3482 3503 1
4477 3483 3484 1
4478 3484 3485 1
4479 3484 3486 1
4480 3487 3488 1
4481 3487 3489 1
4482 3487 3490 1
4483 3490 3491 1
4484 3491 3525 1
4485 3491 3492 1
4486 3491 3506 1
4487 3493 3502 1
4488 3493 3505 1
4489 3494 3497 1
4490 3494 3495 1
4491 3494 3498 1
4492 3495 3496 1
4493 3496 3499 1
4494 3499 3500 1
4495 3500 3501 1
4496 3501 3502 1
4497 3502 3503 1
4498 3502 3504 1
4499 3505 3506 1
4500 3505 3508 1
4501 3505 3507 1
4502 3508 3509 1
4503 3509 3510 1
4504 3511 3520 1
4505 3511 3523 1
4506 3512 3516 1
4507 3512 3513 1
4508 3512 3515 1
4509 3513 3514 1
4510 3514 3517 1
4511 3515 3532 1
4512 3517 3518 1
4513 3518 3519 1
4514 3519 3520 1
4515 3520 3522 1
4516 3520 3521 1
4517 3521 3536 1
4518 3523 3525 1
4519 3523 3526 1
4520 3523 3524 1
4521 3524 3545 1
4522 3526 3527 1
4523 3527 3528 1
4524 3529 3538 1
4525 3529 3541 1
4526 3530 3534 1
4527 3530 3533 1
4528 3530 3531 1
4529 3531 3532 1
4530 3532 3535 1
4531 3532 3570 1
4532 3535 3536 1
4533 3536 3537 1
4534 3536 3576 1
4535 3537 3538 1
4536 3538 3540 1
4537 3538 3539 1
4538 3541 3543 1
4539 3541 3542 1
4540 3541 3544 1
4541 3544 3545 1
4542 3545 3546 1
4543 3545 3579 1
4544 3547 3556 1
4545 3547 3559 1
4546 3548 3552 1
4547 3548 3551 1
4548 3548 3549 1
4549 3549 3550 1
4550 3550 3569 1
4551 3550 3553 1
4552 3550 3588 1
4553 3553 3554 1
4554 3554 3575 1
4555 3554 3555 1
4556 3554 3594 1
4557 3555 3556 1
4558 3556 3558 1
4559 3556 3557 1
4560 3559 3561 1
4561 3559 3560 1
4562 3559 3562 1
4563 3562 3563 1
4564 3563 3578 1
4565 3563 3564 1
4566 3563 3597 1
4567 3565 3574 1
4568 3565 3577 1
4569 3566 3570 1
4570 3566 3567 1
4571 3566 3569 1
4572 3567 3568 1
4573 3568 3571 1
4574 3571 3572 1
4575 3572 3573 1
4576 3573 3574 1
4577 3574 3576 1
4578 3574 3575 1
4579 3577 3579 1
4580 3577 3580 1
4581 3577 3578 1
4582 3580 3581 1
4583 3581 3582 1
4584 3583 3592 1
4585 3583 3595 1
4586 3584 3588 1
4587 3584 3585 1
4588 3584 3587 1
4589 3585 3586 1
4590 3586 3589 1
4591 3589 3590 1
4592 3590 3591 1
4593 3591 3592 1
4594 3592 3594 1
4595 3592 3593 1
4596 3595 3597 1
4597 3595 3598 1
4598 3595 3596 1
4599 3598 3599 1
4600 3599 3600 1
4601 3601 3610 1
4602 3601 3613 1
4603 3602 3605 1
4604 3602 3606 1
4605 3602 3603 1
4606 3603 3604 1
4607 3604 3642 1
4608 3604 3607 1
4609 3604 3947 1
4610 3605 5080 1
4611 3606 5386 1
4612 3607 3608 1
4613 3608 3609 1
4614 3608 3648 1
4615 3608 3953 1
4616 3609 3610 1
4617 3610 3611 1
4618 3610 3612 1
4619 3611 5084 1
4620 3612 5390 1
4621 3613 3614 1
4622 3613 3615 1
4623 3613 3616 1
4624 3614 5093 1
4625 3615 5399 1
4626 3616 3617 1
4627 3617 3651 1
4628 3617 3618 1
4629 3617 3956 1
4630 3619 3628 1
4631 3619 3631 1
4632 3620 3624 1
4633 3620 3623 1
4634 3620 3621 1
4635 3621 3622 1
4636 3622 3641 1
4637 3622 3625 1
4638 3622 3660 1
4639 3623 5098 1
4640 3624 5080 1
4641 3625 3626 1
4642 3626 3627 1
4643 3626 3647 1
4644 3626 3666 1
4645 3627 3628 1
4646 3628 3630 1
4647 3628 3629 1
4648 3629 5102 1
4649 3630 5084 1
4650 3631 3633 1
4651 3631 3632 1
4652 3631 3634 1
4653 3632 5111 1
4654 3633 5093 1
4655 3634 3635 1
4656 3635 3650 1
4657 3635 3669 1
4658 3635 3636 1
4659 3637 3646 1
4660 3637 3649 1
4661 3638 3639 1
4662 3638 3641 1
4663 3638 3642 1
4664 3639 3640 1
4665 3640 3643 1
4666 3640 3984 1
4667 3640 3965 1
4668 3643 3644 1
4669 3644 3645 1
4670 3644 3990 1
4671 3644 3971 1
4672 3645 3646 1
4673 3646 3647 1
4674 3646 3648 1
4675 3649 3652 1
4676 3649 3650 1
4677 3649 3651 1
4678 3652 3653 1
4679 3653 3993 1
4680 3653 3974 1
4681 3653 3654 1
4682 3655 3664 1
4683 3655 3667 1
4684 3656 3659 1
4685 3656 3657 1
4686 3656 3660 1
4687 3657 3658 1
4688 3658 4038 1
4689 3658 3661 1
4690 3658 3983 1
4691 3659 3676 1
4692 3661 3662 1
4693 3662 4044 1
4694 3662 3663 1
4695 3662 3989 1
4696 3663 3664 1
4697 3664 3665 1
4698 3664 3666 1
4699 3665 3680 1
4700 3667 3668 1
4701 3667 3670 1
4702 3667 3669 1
4703 3668 3689 1
4704 3670 3671 1
4705 3671 4047 1
4706 3671 3992 1
4707 3671 3672 1
4708 3673 3682 1
4709 3673 3685 1
4710 3674 3678 1
4711 3674 3675 1
4712 3674 3677 1
4713 3675 3676 1
4714 3676 3679 1
4715 3676 3714 1
4716 3677 5152 1
4717 3678 5098 1
4718 3679 3680 1
4719 3680 3681 1
4720 3680 3720 1
4721 3681 3682 1
4722 3682 3684 1
4723 3682 3683 1
4724 3683 5156 1
4725 3684 5102 1
4726 3685 3687 1
4727 3685 3688 1
4728 3685 3686 1
4729 3686 5165 1
4730 3687 5111 1
4731 3688 3689 1
4732 3689 3690 1
4733 3689 3723 1
4734 3691 3700 1
4735 3691 3703 1
4736 3692 3696 1
4737 3692 3693 1
4738 3692 3695 1
4739 3693 3694 1
4740 3694 3713 1
4741 3694 3697 1
4742 3694 3732 1
4743 3695 5170 1
4744 3696 5152 1
4745 3697 3698 1
4746 3698 3719 1
4747 3698 3699 1
4748 3698 3738 1
4749 3699 3700 1
4750 3700 3702 1
4751 3700 3701 1
4752 3701 5174 1
4753 3702 5156 1
4754 3703 3705 1
4755 3703 3706 1
4756 3703 3704 1
4757 3704 5183 1
4758 3705 5165 1
4759 3706 3707 1
4760 3707 3722 1
4761 3707 3708 1
4762 3707 3741 1
4763 3709 3718 1
4764 3709 3721 1
4765 3710 3714 1
4766 3710 3711 1
4767 3710 3713 1
4768 3711 3712 1
4769 3712 4037 1
4770 3712 3715 1
4771 3712 4056 1
4772 3715 3716 1
4773 3716 4043 1
4774 3716 3717 1
4775 3716 4062 1
4776 3717 3718 1
4777 3718 3720 1
4778 3718 3719 1
4779 3721 3723 1
4780 3721 3724 1
4781 3721 3722 1
4782 3724 3725 1
4783 3725 4046 1
4784 3725 3726 1
4785 3725 4065 1
4786 3727 3736 1
4787 3727 3739 1
4788 3728 3731 1
4789 3728 3732 1
4790 3728 3729 1
4791 3729 3730 1
4792 3730 4055 1
4793 3730 4110 1
4794 3730 3733 1
4795 3731 3748 1
4796 3733 3734 1
4797 3734 4061 1
4798 3734 4116 1
4799 3734 3735 1
4800 3735 3736 1
4801 3736 3737 1
4802 3736 3738 1
4803 3737 3752 1
4804 3739 3740 1
4805 3739 3741 1
4806 3739 3742 1
4807 3740 3761 1
4808 3742 3743 1
4809 3743 4064 1
4810 3743 4119 1
4811 3743 3744 1
4812 3745 3754 1
4813 3745 3757 1
4814 3746 3749 1
4815 3746 3747 1
4816 3746 3750 1
4817 3747 3748 1
4818 3748 3786 1
4819 3748 3751 1
4820 3749 5224 1
4821 3750 5170 1
4822 3751 3752 1
4823 3752 3792 1
4824 3752 3753 1
4825 3753 3754 1
4826 3754 3755 1
4827 3754 3756 1
4828 3755 5228 1
4829 3756 5174 1
4830 3757 3758 1
4831 3757 3760 1
4832 3757 3759 1
4833 3758 5237 1
4834 3759 5183 1
4835 3760 3761 1
4836 3761 3795 1
4837 3761 3762 1
4838 3763 3772 1
4839 3763 3775 1
4840 3764 3767 1
4841 3764 3765 1
4842 3764 3768 1
4843 3765 3766 1
4844 3766 3804 1
4845 3766 3769 1
4846 3766 3785 1
4847 3767 5242 1
4848 3768 5224 1
4849 3769 3770 1
4850 3770 3810 1
4851 3770 3771 1
4852 3770 3791 1
4853 3771 3772 1
4854 3772 3773 1
4855 3772 3774 1
4856 3773 5246 1
4857 3774 5228 1
4858 3775 3776 1
4859 3775 3778 1
4860 3775 3777 1
4861 3776 5255 1
4862 3777 5237 1
4863 3778 3779 1
4864 3779 3813 1
4865 3779 3780 1
4866 3779 3794 1
4867 3781 3790 1
4868 3781 3793 1
4869 3782 3785 1
4870 3782 3783 1
4871 3782 3786 1
4872 3783 3784 1
4873 3784 4128 1
4874 3784 3787 1
4875 3784 4109 1
4876 3787 3788 1
4877 3788 4134 1
4878 3788 3789 1
4879 3788 4115 1
4880 3789 3790 1
4881 3790 3791 1
4882 3790 3792 1
4883 3793 3794 1
4884 3793 3796 1
4885 3793 3795 1
4886 3796 3797 1
4887 3797 4137 1
4888 3797 3798 1
4889 3797 4118 1
4890 3799 3808 1
4891 3799 3811 1
4892 3800 3803 1
4893 3800 3801 1
4894 3800 3804 1
4895 3801 3802 1
4896 3802 4182 1
4897 3802 3805 1
4898 3802 4127 1
4899 3803 3820 1
4900 3805 3806 1
4901 3806 4188 1
4902 3806 3807 1
4903 3806 4133 1
4904 3807 3808 1
4905 3808 3809 1
4906 3808 3810 1
4907 3809 3824 1
4908 3811 3812 1
4909 3811 3814 1
4910 3811 3813 1
4911 3812 3833 1
4912 3814 3815 1
4913 3815 4191 1
4914 3815 3816 1
4915 3815 4136 1
4916 3817 3826 1
4917 3817 3829 1
4918 3818 3821 1
4919 3818 3819 1
4920 3818 3822 1
4921 3819 3820 1
4922 3820 3858 1
4923 3820 3823 1
4924 3821 5296 1
4925 3822 5242 1
4926 3823 3824 1
4927 3824 3864 1
4928 3824 3825 1
4929 3825 3826 1
4930 3826 3827 1
4931 3826 3828 1
4932 3827 5300 1
4933 3828 5246 1
4934 3829 3830 1
4935 3829 3832 1
4936 3829 3831 1
4937 3830 5309 1
4938 3831 5255 1
4939 3832 3833 1
4940 3833 3867 1
4941 3833 3834 1
4942 3835 3844 1
4943 3835 3847 1
4944 3836 3839 1
4945 3836 3837 1
4946 3836 3840 1
4947 3837 3838 1
4948 3838 3876 1
4949 3838 3841 1
4950 3838 3857 1
4951 3839 5314 1
4952 3840 5296 1
4953 3841 3842 1
4954 3842 3882 1
4955 3842 3843 1
4956 3842 3863 1
4957 3843 3844 1
4958 3844 3845 1
4959 3844 3846 1
4960 3845 5318 1
4961 3846 5300 1
4962 3847 3848 1
4963 3847 3850 1
4964 3847 3849 1
4965 3848 5327 1
4966 3849 5309 1
4967 3850 3851 1
4968 3851 3885 1
4969 3851 3852 1
4970 3851 3866 1
4971 3853 3862 1
4972 3853 3865 1
4973 3854 3857 1
4974 3854 3855 1
4975 3854 3858 1
4976 3855 3856 1
4977 3856 4200 1
4978 3856 3859 1
4979 3856 4181 1
4980 3859 3860 1
4981 3860 4206 1
4982 3860 3861 1
4983 3860 4187 1
4984 3861 3862 1
4985 3862 3863 1
4986 3862 3864 1
4987 3865 3866 1
4988 3865 3868 1
4989 3865 3867 1
4990 3868 3869 1
4991 3869 4209 1
4992 3869 3870 1
4993 3869 4190 1
4994 3871 3880 1
4995 3871 3883 1
4996 3872 3876 1
4997 3872 3873 1
4998 3872 3875 1
4999 3873 3874 1
5000 3874 4199 1
5001 3874 3877 1
5002 3874 4254 1
5003 3875 3892 1
5004 3877 3878 1
5005 3878 4205 1
5006 3878 3879 1
5007 3878 4260 1
5008 3879 3880 1
5009 3880 3882 1
5010 3880 3881 1
5011 3881 3896 1
5012 3883 3885 1
5013 3883 3886 1
5014 3883 3884 1
5015 3884 3905 1
5016 3886 3887 1
5017 3887 4208 1
5018 3887 3888 1
5019 3887 4263 1
5020 3889 3898 1
5021 3889 3901 1
5022 3890 3894 1
5023 3890 3891 1
5024 3890 3893 1
5025 3891 3892 1
5026 3892 3895 1
5027 3892 3930 1
5028 3893 5368 1
5029 3894 5314 1
5030 3895 3896 1
5031 3896 3897 1
5032 3896 3936 1
5033 3897 3898 1
5034 3898 3900 1
5035 3898 3899 1
5036 3899 5372 1
5037 3900 5318 1
5038 3901 3903 1
5039 3901 3904 1
5040 3901 3902 1
5041 3902 5381 1
5042 3903 5327 1
5043 3904 3905 1
5044 3905 3906 1
5045 3905 3939 1
5046 3907 3916 1
5047 3907 3919 1
5048 3908 3912 1
5049 3908 3909 1
5050 3908 3911 1
5051 3909 3910 1
5052 3910 3929 1
5053 3910 3913 1
5054 3910 3948 1
5055 3911 5386 1
5056 3912 5368 1
5057 3913 3914 1
5058 3914 3935 1
5059 3914 3915 1
5060 3914 3954 1
5061 3915 3916 1
5062 3916 3918 1
5063 3916 3917 1
5064 3917 5390 1
5065 3918 5372 1
5066 3919 3921 1
5067 3919 3922 1
5068 3919 3920 1
5069 3920 5399 1
5070 3921 5381 1
5071 3922 3923 1
5072 3923 3938 1
5073 3923 3924 1
5074 3923 3957 1
5075 3925 3934 1
5076 3925 3937 1
5077 3926 3930 1
5078 3926 3927 1
5079 3926 3929 1
5080 3927 3928 1
5081 3928 4253 1
5082 3928 3931 1
5083 3928 4272 1
5084 3931 3932 1
5085 3932 4259 1
5086 3932 3933 1
5087 3932 4278 1
5088 3933 3934 1
5089 3934 3936 1
5090 3934 3935 1
5091 3937 3939 1
5092 3937 3940 1
5093 3937 3938 1
5094 3940 3941 1
5095 3941 4262 1
5096 3941 3942 1
5097 3941 4281 1
5098 3943 3952 1
5099 3943 3955 1
5100 3944 3948 1
5101 3944 3945 1
5102 3944 3947 1
5103 3945 3946 1
5104 3946 4271 1
5105 3946 3949 1
5106 3946 3966 1
5107 3949 3950 1
5108 3950 4277 1
5109 3950 3951 1
5110 3950 3972 1
5111 3951 3952 1
5112 3952 3954 1
5113 3952 3953 1
5114 3955 3957 1
5115 3955 3958 1
5116 3955 3956 1
5117 3958 3959 1
5118 3959 4280 1
5119 3959 3960 1
5120 3959 3975 1
5121 3961 3970 1
5122 3961 3973 1
5123 3962 3963 1
5124 3962 3965 1
5125 3962 3966 1
5126 3963 3964 1
5127 3964 4002 1
5128 3964 3967 1
5129 3964 4307 1
5130 3967 3968 1
5131 3968 4008 1
5132 3968 3969 1
5133 3968 4313 1
5134 3969 3970 1
5135 3970 3971 1
5136 3970 3972 1
5137 3973 3976 1
5138 3973 3974 1
5139 3973 3975 1
5140 3976 3977 1
5141 3977 4011 1
5142 3977 3978 1
5143 3977 4316 1
5144 3979 3988 1
5145 3979 3991 1
5146 3980 3981 1
5147 3980 3984 1
5148 3980 3983 1
5149 3981 3982 1
5150 3982 4001 1
5151 3982 4020 1
5152 3982 3985 1
5153 3985 3986 1
5154 3986 4007 1
5155 3986 4026 1
5156 3986 3987 1
5157 3987 3988 1
5158 3988 3990 1
5159 3988 3989 1
5160 3991 3994 1
5161 3991 3993 1
5162 3991 3992 1
5163 3994 3995 1
5164 3995 4010 1
5165 3995 4029 1
5166 3995 3996 1
5167 3997 4006 1
5168 3997 4009 1
5169 3998 3999 1
5170 3998 4001 1
5171 3998 4002 1
5172 3999 4000 1
5173 4000 4344 1
5174 4000 4325 1
5175 4000 4003 1
5176 4003 4004 1
5177 4004 4005 1
5178 4004 4350 1
5179 4004 4331 1
5180 4005 4006 1
5181 4006 4007 1
5182 4006 4008 1
5183 4009 4012 1
5184 4009 4010 1
5185 4009 4011 1
5186 4012 4013 1
5187 4013 4353 1
5188 4013 4334 1
5189 4013 4014 1
5190 4015 4024 1
5191 4015 4027 1
5192 4016 4017 1
5193 4016 4019 1
5194 4016 4020 1
5195 4017 4018 1
5196 4018 4398 1
5197 4018 4343 1
5198 4018 4021 1
5199 4019 4036 1
5200 4021 4022 1
5201 4022 4023 1
5202 4022 4404 1
5203 4022 4349 1
5204 4023 4024 1
5205 4024 4025 1
5206 4024 4026 1
5207 4025 4040 1
5208 4027 4030 1
5209 4027 4028 1
5210 4027 4029 1
5211 4028 4049 1
5212 4030 4031 1
5213 4031 4407 1
5214 4031 4352 1
5215 4031 4032 1
5216 4033 4042 1
5217 4033 4045 1
5218 4034 4035 1
5219 4034 4038 1
5220 4034 4037 1
5221 4035 4036 1
5222 4036 4039 1
5223 4036 4074 1
5224 4039 4040 1
5225 4040 4080 1
5226 4040 4041 1
5227 4041 4042 1
5228 4042 4044 1
5229 4042 4043 1
5230 4045 4048 1
5231 4045 4047 1
5232 4045 4046 1
5233 4048 4049 1
5234 4049 4050 1
5235 4049 4083 1
5236 4051 4060 1
5237 4051 4063 1
5238 4052 4056 1
5239 4052 4053 1
5240 4052 4055 1
5241 4053 4054 1
5242 4054 4073 1
5243 4054 4057 1
5244 4054 4092 1
5245 4057 4058 1
5246 4058 4079 1
5247 4058 4098 1
5248 4058 4059 1
5249 4059 4060 1
5250 4060 4062 1
5251 4060 4061 1
5252 4063 4065 1
5253 4063 4066 1
5254 4063 4064 1
5255 4066 4067 1
5256 4067 4082 1
5257 4067 4068 1
5258 4067 4101 1
5259 4069 4078 1
5260 4069 4081 1
5261 4070 4074 1
5262 4070 4071 1
5263 4070 4073 1
5264 4071 4072 1
5265 4072 4397 1
5266 4072 4075 1
5267 4072 4416 1
5268 4075 4076 1
5269 4076 4403 1
5270 4076 4077 1
5271 4076 4422 1
5272 4077 4078 1
5273 4078 4080 1
5274 4078 4079 1
5275 4081 4083 1
5276 4081 4084 1
5277 4081 4082 1
5278 4084 4085 1
5279 4085 4406 1
5280 4085 4086 1
5281 4085 4425 1
5282 4087 4096 1
5283 4087 4099 1
5284 4088 4091 1
5285 4088 4092 1
5286 4088 4089 1
5287 4089 4090 1
5288 4090 4415 1
5289 4090 4470 1
5290 4090 4093 1
5291 4091 4108 1
5292 4093 4094 1
5293 4094 4421 1
5294 4094 4476 1
5295 4094 4095 1
5296 4095 4096 1
5297 4096 4097 1
5298 4096 4098 1
5299 4097 4112 1
5300 4099 4100 1
5301 4099 4101 1
5302 4099 4102 1
5303 4100 4121 1
5304 4102 4103 1
5305 4103 4424 1
5306 4103 4479 1
5307 4103 4104 1
5308 4105 4114 1
5309 4105 4117 1
5310 4106 4109 1
5311 4106 4107 1
5312 4106 4110 1
5313 4107 4108 1
5314 4108 4146 1
5315 4108 4111 1
5316 4111 4112 1
5317 4112 4152 1
5318 4112 4113 1
5319 4113 4114 1
5320 4114 4115 1
5321 4114 4116 1
5322 4117 4118 1
5323 4117 4120 1
5324 4117 4119 1
5325 4120 4121 1
5326 4121 4155 1
5327 4121 4122 1
5328 4123 4132 1
5329 4123 4135 1
5330 4124 4127 1
5331 4124 4125 1
5332 4124 4128 1
5333 4125 4126 1
5334 4126 4164 1
5335 4126 4129 1
5336 4126 4145 1
5337 4129 4130 1
5338 4130 4170 1
5339 4130 4151 1
5340 4130 4131 1
5341 4131 4132 1
5342 4132 4133 1
5343 4132 4134 1
5344 4135 4136 1
5345 4135 4138 1
5346 4135 4137 1
5347 4138 4139 1
5348 4139 4173 1
5349 4139 4140 1
5350 4139 4154 1
5351 4141 4150 1
5352 4141 4153 1
5353 4142 4145 1
5354 4142 4143 1
5355 4142 4146 1
5356 4143 4144 1
5357 4144 4488 1
5358 4144 4147 1
5359 4144 4469 1
5360 4147 4148 1
5361 4148 4494 1
5362 4148 4149 1
5363 4148 4475 1
5364 4149 4150 1
5365 4150 4151 1
5366 4150 4152 1
5367 4153 4154 1
5368 4153 4156 1
5369 4153 4155 1
5370 4156 4157 1
5371 4157 4497 1
5372 4157 4158 1
5373 4157 4478 1
5374 4159 4168 1
5375 4159 4171 1
5376 4160 4163 1
5377 4160 4161 1
5378 4160 4164 1
5379 4161 4162 1
5380 4162 4542 1
5381 4162 4165 1
5382 4162 4487 1
5383 4163 4180 1
5384 4165 4166 1
5385 4166 4548 1
5386 4166 4167 1
5387 4166 4493 1
5388 4167 4168 1
5389 4168 4169 1
5390 4168 4170 1
5391 4169 4184 1
5392 4171 4172 1
5393 4171 4174 1
5394 4171 4173 1
5395 4172 4193 1
5396 4174 4175 1
5397 4175 4551 1
5398 4175 4176 1
5399 4175 4496 1
5400 4177 4186 1
5401 4177 4189 1
5402 4178 4181 1
5403 4178 4179 1
5404 4178 4182 1
5405 4179 4180 1
5406 4180 4218 1
5407 4180 4183 1
5408 4183 4184 1
5409 4184 4224 1
5410 4184 4185 1
5411 4185 4186 1
5412 4186 4187 1
5413 4186 4188 1
5414 4189 4190 1
5415 4189 4192 1
5416 4189 4191 1
5417 4192 4193 1
5418 4193 4227 1
5419 4193 4194 1
5420 4195 4204 1
5421 4195 4207 1
5422 4196 4199 1
5423 4196 4197 1
5424 4196 4200 1
5425 4197 4198 1
5426 4198 4236 1
5427 4198 4201 1
5428 4198 4217 1
5429 4201 4202 1
5430 4202 4242 1
5431 4202 4223 1
5432 4202 4203 1
5433 4203 4204 1
5434 4204 4205 1
5435 4204 4206 1
5436 4207 4208 1
5437 4207 4210 1
5438 4207 4209 1
5439 4210 4211 1
5440 4211 4245 1
5441 4211 4212 1
5442 4211 4226 1
5443 4213 4222 1
5444 4213 4225 1
5445 4214 4217 1
5446 4214 4215 1
5447 4214 4218 1
5448 4215 4216 1
5449 4216 4560 1
5450 4216 4219 1
5451 4216 4541 1
5452 4219 4220 1
5453 4220 4566 1
5454 4220 4221 1
5455 4220 4547 1
5456 4221 4222 1
5457 4222 4223 1
5458 4222 4224 1
5459 4225 4226 1
5460 4225 4228 1
5461 4225 4227 1
5462 4228 4229 1
5463 4229 4569 1
5464 4229 4230 1
5465 4229 4550 1
5466 4231 4240 1
5467 4231 4243 1
5468 4232 4236 1
5469 4232 4233 1
5470 4232 4235 1
5471 4233 4234 1
5472 4234 4559 1
5473 4234 4237 1
5474 4234 4614 1
5475 4235 4252 1
5476 4237 4238 1
5477 4238 4565 1
5478 4238 4239 1
5479 4238 4620 1
5480 4239 4240 1
5481 4240 4242 1
5482 4240 4241 1
5483 4241 4256 1
5484 4243 4245 1
5485 4243 4246 1
5486 4243 4244 1
5487 4244 4265 1
5488 4246 4247 1
5489 4247 4568 1
5490 4247 4248 1
5491 4247 4623 1
5492 4249 4258 1
5493 4249 4261 1
5494 4250 4254 1
5495 4250 4251 1
5496 4250 4253 1
5497 4251 4252 1
5498 4252 4255 1
5499 4252 4290 1
5500 4255 4256 1
5501 4256 4296 1
5502 4256 4257 1
5503 4257 4258 1
5504 4258 4260 1
5505 4258 4259 1
5506 4261 4263 1
5507 4261 4264 1
5508 4261 4262 1
5509 4264 4265 1
5510 4265 4266 1
5511 4265 4299 1
5512 4267 4276 1
5513 4267 4279 1
5514 4268 4272 1
5515 4268 4269 1
5516 4268 4271 1
5517 4269 4270 1
5518 4270 4289 1
5519 4270 4273 1
5520 4270 4308 1
5521 4273 4274 1
5522 4274 4295 1
5523 4274 4314 1
5524 4274 4275 1
5525 4275 4276 1
5526 4276 4278 1
5527 4276 4277 1
5528 4279 4281 1
5529 4279 4282 1
5530 4279 4280 1
5531 4282 4283 1
5532 4283 4298 1
5533 4283 4284 1
5534 4283 4317 1
5535 4285 4294 1
5536 4285 4297 1
5537 4286 4290 1
5538 4286 4287 1
5539 4286 4289 1
5540 4287 4288 1
5541 4288 4613 1
5542 4288 4291 1
5543 4288 4632 1
5544 4291 4292 1
5545 4292 4619 1
5546 4292 4293 1
5547 4292 4638 1
5548 4293 4294 1
5549 4294 4296 1
5550 4294 4295 1
5551 4297 4299 1
5552 4297 4300 1
5553 4297 4298 1
5554 4300 4301 1
5555 4301 4622 1
5556 4301 4302 1
5557 4301 4641 1
5558 4303 4312 1
5559 4303 4315 1
5560 4304 4308 1
5561 4304 4305 1
5562 4304 4307 1
5563 4305 4306 1
5564 4306 4631 1
5565 4306 4309 1
5566 4306 4326 1
5567 4309 4310 1
5568 4310 4637 1
5569 4310 4311 1
5570 4310 4332 1
5571 4311 4312 1
5572 4312 4314 1
5573 4312 4313 1
5574 4315 4317 1
5575 4315 4318 1
5576 4315 4316 1
5577 4318 4319 1
5578 4319 4640 1
5579 4319 4320 1
5580 4319 4335 1
5581 4321 4330 1
5582 4321 4333 1
5583 4322 4323 1
5584 4322 4325 1
5585 4322 4326 1
5586 4323 4324 1
5587 4324 4362 1
5588 4324 4327 1
5589 4324 4667 1
5590 4327 4328 1
5591 4328 4368 1
5592 4328 4329 1
5593 4328 4673 1
5594 4329 4330 1
5595 4330 4331 1
5596 4330 4332 1
5597 4333 4336 1
5598 4333 4334 1
5599 4333 4335 1
5600 4336 4337 1
5601 4337 4371 1
5602 4337 4338 1
5603 4337 4676 1
5604 4339 4348 1
5605 4339 4351 1
5606 4340 4341 1
5607 4340 4344 1
5608 4340 4343 1
5609 4341 4342 1
5610 4342 4361 1
5611 4342 4380 1
5612 4342 4345 1
5613 4345 4346 1
5614 4346 4367 1
5615 4346 4386 1
5616 4346 4347 1
5617 4347 4348 1
5618 4348 4350 1
5619 4348 4349 1
5620 4351 4354 1
5621 4351 4353 1
5622 4351 4352 1
5623 4354 4355 1
5624 4355 4370 1
5625 4355 4389 1
5626 4355 4356 1
5627 4357 4366 1
5628 4357 4369 1
5629 4358 4359 1
5630 4358 4361 1
5631 4358 4362 1
5632 4359 4360 1
5633 4360 4704 1
5634 4360 4685 1
5635 4360 4363 1
5636 4363 4364 1
5637 4364 4365 1
5638 4364 4710 1
5639 4364 4691 1
5640 4365 4366 1
5641 4366 4367 1
5642 4366 4368 1
5643 4369 4372 1
5644 4369 4370 1
5645 4369 4371 1
5646 4372 4373 1
5647 4373 4713 1
5648 4373 4694 1
5649 4373 4374 1
5650 4375 4384 1
5651 4375 4387 1
5652 4376 4377 1
5653 4376 4379 1
5654 4376 4380 1
5655 4377 4378 1
5656 4378 4758 1
5657 4378 4703 1
5658 4378 4381 1
5659 4379 4396 1
5660 4381 4382 1
5661 4382 4383 1
5662 4382 4764 1
5663 4382 4709 1
5664 4383 4384 1
5665 4384 4385 1
5666 4384 4386 1
5667 4385 4400 1
5668 4387 4390 1
5669 4387 4388 1
5670 4387 4389 1
5671 4388 4409 1
5672 4390 4391 1
5673 4391 4767 1
5674 4391 4712 1
5675 4391 4392 1
5676 4393 4402 1
5677 4393 4405 1
5678 4394 4398 1
5679 4394 4395 1
5680 4394 4397 1
5681 4395 4396 1
5682 4396 4399 1
5683 4396 4434 1
5684 4399 4400 1
5685 4400 4440 1
5686 4400 4401 1
5687 4401 4402 1
5688 4402 4404 1
5689 4402 4403 1
5690 4405 4407 1
5691 4405 4408 1
5692 4405 4406 1
5693 4408 4409 1
5694 4409 4410 1
5695 4409 4443 1
5696 4411 4420 1
5697 4411 4423 1
5698 4412 4416 1
5699 4412 4413 1
5700 4412 4415 1
5701 4413 4414 1
5702 4414 4433 1
5703 4414 4417 1
5704 4414 4452 1
5705 4417 4418 1
5706 4418 4439 1
5707 4418 4458 1
5708 4418 4419 1
5709 4419 4420 1
5710 4420 4422 1
5711 4420 4421 1
5712 4423 4425 1
5713 4423 4426 1
5714 4423 4424 1
5715 4426 4427 1
5716 4427 4442 1
5717 4427 4428 1
5718 4427 4461 1
5719 4429 4438 1
5720 4429 4441 1
5721 4430 4434 1
5722 4430 4431 1
5723 4430 4433 1
5724 4431 4432 1
5725 4432 4757 1
5726 4432 4435 1
5727 4432 4776 1
5728 4435 4436 1
5729 4436 4763 1
5730 4436 4437 1
5731 4436 4782 1
5732 4437 4438 1
5733 4438 4440 1
5734 4438 4439 1
5735 4441 4443 1
5736 4441 4444 1
5737 4441 4442 1
5738 4444 4445 1
5739 4445 4766 1
5740 4445 4446 1
5741 4445 4785 1
5742 4447 4456 1
5743 4447 4459 1
5744 4448 4451 1
5745 4448 4452 1
5746 4448 4449 1
5747 4449 4450 1
5748 4450 4775 1
5749 4450 4830 1
5750 4450 4453 1
5751 4451 4468 1
5752 4453 4454 1
5753 4454 4781 1
5754 4454 4836 1
5755 4454 4455 1
5756 4455 4456 1
5757 4456 4457 1
5758 4456 4458 1
5759 4457 4472 1
5760 4459 4460 1
5761 4459 4461 1
5762 4459 4462 1
5763 4460 4481 1
5764 4462 4463 1
5765 4463 4784 1
5766 4463 4839 1
5767 4463 4464 1
5768 4465 4474 1
5769 4465 4477 1
5770 4466 4469 1
5771 4466 4467 1
5772 4466 4470 1
5773 4467 4468 1
5774 4468 4506 1
5775 4468 4471 1
5776 4471 4472 1
5777 4472 4512 1
5778 4472 4473 1
5779 4473 4474 1
5780 4474 4475 1
5781 4474 4476 1
5782 4477 4478 1
5783 4477 4480 1
5784 4477 4479 1
5785 4480 4481 1
5786 4481 4515 1
5787 4481 4482 1
5788 4483 4492 1
5789 4483 4495 1
5790 4484 4487 1
5791 4484 4485 1
5792 4484 4488 1
5793 4485 4486 1
5794 4486 4524 1
5795 4486 4489 1
5796 4486 4505 1
5797 4489 4490 1
5798 4490 4530 1
5799 4490 4511 1
5800 4490 4491 1
5801 4491 4492 1
5802 4492 4493 1
5803 4492 4494 1
5804 4495 4496 1
5805 4495 4498 1
5806 4495 4497 1
5807 4498 4499 1
5808 4499 4533 1
5809 4499 4500 1
5810 4499 4514 1
5811 4501 4510 1
5812 4501 4513 1
5813 4502 4505 1
5814 4502 4503 1
5815 4502 4506 1
5816 4503 4504 1
5817 4504 4848 1
5818 4504 4507 1
5819 4504 4829 1
5820 4507 4508 1
5821 4508 4854 1
5822 4508 4509 1
5823 4508 4835 1
5824 4509 4510 1
5825 4510 4511 1
5826 4510 4512 1
5827 4513 4514 1
5828 4513 4516 1
5829 4513 4515 1
5830 4516 4517 1
5831 4517 4857 1
5832 4517 4518 1
5833 4517 4838 1
5834 4519 4528 1
5835 4519 4531 1
5836 4520 4523 1
5837 4520 4521 1
5838 4520 4524 1
5839 4521 4522 1
5840 4522 4902 1
5841 4522 4525 1
5842 4522 4847 1
5843 4523 4540 1
5844 4525 4526 1
5845 4526 4908 1
5846 4526 4527 1
5847 4526 4853 1
5848 4527 4528 1
5849 4528 4529 1
5850 4528 4530 1
5851 4529 4544 1
5852 4531 4532 1
5853 4531 4534 1
5854 4531 4533 1
5855 4532 4553 1
5856 4534 4535 1
5857 4535 4911 1
5858 4535 4536 1
5859 4535 4856 1
5860 4537 4546 1
5861 4537 4549 1
5862 4538 4541 1
5863 4538 4539 1
5864 4538 4542 1
5865 4539 4540 1
5866 4540 4578 1
5867 4540 4543 1
5868 4543 4544 1
5869 4544 4584 1
5870 4544 4545 1
5871 4545 4546 1
5872 4546 4547 1
5873 4546 4548 1
5874 4549 4550 1
5875 4549 4552 1
5876 4549 4551 1
5877 4552 4553 1
5878 4553 4587 1
5879 4553 4554 1
5880 4555 4564 1
5881 4555 4567 1
5882 4556 4559 1
5883 4556 4557 1
5884 4556 4560 1
5885 4557 4558 1
5886 4558 4596 1
5887 4558 4561 1
5888 4558 4577 1
5889 4561 4562 1
5890 4562 4602 1
5891 4562 4583 1
5892 4562 4563 1
5893 4563 4564 1
5894 4564 4565 1
5895 4564 4566 1
5896 4567 4568 1
5897 4567 4570 1
5898 4567 4569 1
5899 4570 4571 1
5900 4571 4605 1
5901 4571 4572 1
5902 4571 4586 1
5903 4573 4582 1
5904 4573 4585 1
5905 4574 4577 1
5906 4574 4575 1
5907 4574 4578 1
5908 4575 4576 1
5909 4576 4920 1
5910 4576 4579 1
5911 4576 4901 1
5912 4579 4580 1
5913 4580 4926 1
5914 4580 4581 1
5915 4580 4907 1
5916 4581 4582 1
5917 4582 4583 1
5918 4582 4584 1
5919 4585 4586 1
5920 4585 4588 1
5921 4585 4587 1
5922 4588 4589 1
5923 4589 4929 1
5924 4589 4590 1
5925 4589 4910 1
5926 4591 4600 1
5927 4591 4603 1
5928 4592 4596 1
5929 4592 4593 1
5930 4592 4595 1
5931 4593 4594 1
5932 4594 4919 1
5933 4594 4597 1
5934 4594 4974 1
5935 4595 4612 1
5936 4597 4598 1
5937 4598 4925 1
5938 4598 4599 1
5939 4598 4980 1
5940 4599 4600 1
5941 4600 4602 1
5942 4600 4601 1
5943 4601 4616 1
5944 4603 4605 1
5945 4603 4606 1
5946 4603 4604 1
5947 4604 4625 1
5948 4606 4607 1
5949 4607 4928 1
5950 4607 4608 1
5951 4607 4983 1
5952 4609 4618 1
5953 4609 4621 1
5954 4610 4614 1
5955 4610 4611 1
5956 4610 4613 1
5957 4611 4612 1
5958 4612 4615 1
5959 4612 4650 1
5960 4615 4616 1
5961 4616 4656 1
5962 4616 4617 1
5963 4617 4618 1
5964 4618 4620 1
5965 4618 4619 1
5966 4621 4623 1
5967 4621 4624 1
5968 4621 4622 1
5969 4624 4625 1
5970 4625 4626 1
5971 4625 4659 1
5972 4627 4636 1
5973 4627 4639 1
5974 4628 4632 1
5975 4628 4629 1
5976 4628 4631 1
5977 4629 4630 1
5978 4630 4649 1
5979 4630 4633 1
5980 4630 4668 1
5981 4633 4634 1
5982 4634 4655 1
5983 4634 4674 1
5984 4634 4635 1
5985 4635 4636 1
5986 4636 4638 1
5987 4636 4637 1
5988 4639 4641 1
5989 4639 4642 1
5990 4639 4640 1
5991 4642 4643 1
5992 4643 4658 1
5993 4643 4644 1
5994 4643 4677 1
5995 4645 4654 1
5996 4645 4657 1
5997 4646 4650 1
5998 4646 4647 1
5999 4646 4649 1
6000 4647 4648 1
6001 4648 4973 1
6002 4648 4651 1
6003 4648 4992 1
6004 4651 4652 1
6005 4652 4979 1
6006 4652 4653 1
6007 4652 4998 1
6008 4653 4654 1
6009 4654 4656 1
6010 4654 4655 1
6011 4657 4659 1
6012 4657 4660 1
6013 4657 4658 1
6014 4660 4661 1
6015 4661 4982 1
6016 4661 4662 1
6017 4661 5001 1
6018 4663 4672 1
6019 4663 4675 1
6020 4664 4668 1
6021 4664 4665 1
6022 4664 4667 1
6023 4665 4666 1
6024 4666 4991 1
6025 4666 4669 1
6026 4666 4686 1
6027 4669 4670 1
6028 4670 4997 1
6029 4670 4671 1
6030 4670 4692 1
6031 4671 4672 1
6032 4672 4674 1
6033 4672 4673 1
6034 4675 4677 1
6035 4675 4678 1
6036 4675 4676 1
6037 4678 4679 1
6038 4679 5000 1
6039 4679 4680 1
6040 4679 4695 1
6041 4681 4690 1
6042 4681 4693 1
6043 4682 4683 1
6044 4682 4685 1
6045 4682 4686 1
6046 4683 4684 1
6047 4684 4722 1
6048 4684 4687 1
6049 4684 5027 1
6050 4687 4688 1
6051 4688 4728 1
6052 4688 4689 1
6053 4688 5033 1
6054 4689 4690 1
6055 4690 4691 1
6056 4690 4692 1
6057 4693 4696 1
6058 4693 4694 1
6059 4693 4695 1
6060 4696 4697 1
6061 4697 4731 1
6062 4697 4698 1
6063 4697 5036 1
6064 4699 4708 1
6065 4699 4711 1
6066 4700 4701 1
6067 4700 4704 1
6068 4700 4703 1
6069 4701 4702 1
6070 4702 4721 1
6071 4702 4740 1
6072 4702 4705 1
6073 4705 4706 1
6074 4706 4727 1
6075 4706 4746 1
6076 4706 4707 1
6077 4707 4708 1
6078 4708 4710 1
6079 4708 4709 1
6080 4711 4714 1
6081 4711 4713 1
6082 4711 4712 1
6083 4714 4715 1
6084 4715 4730 1
6085 4715 4749 1
6086 4715 4716 1
6087 4717 4726 1
6088 4717 4729 1
6089 4718 4719 1
6090 4718 4721 1
6091 4718 4722 1
6092 4719 4720 1
6093 4720 5064 1
6094 4720 5045 1
6095 4720 4723 1
6096 4723 4724 1
6097 4724 4725 1
6098 4724 5070 1
6099 4724 5051 1
6100 4725 4726 1
6101 4726 4727 1
6102 4726 4728 1
6103 4729 4732 1
6104 4729 4730 1
6105 4729 4731 1
6106 4732 4733 1
6107 4733 5073 1
6108 4733 5054 1
6109 4733 4734 1
6110 4735 4744 1
6111 4735 4747 1
6112 4736 4737 1
6113 4736 4739 1
6114 4736 4740 1
6115 4737 4738 1
6116 4738 5118 1
6117 4738 5063 1
6118 4738 4741 1
6119 4739 4756 1
6120 4741 4742 1
6121 4742 4743 1
6122 4742 5124 1
6123 4742 5069 1
6124 4743 4744 1
6125 4744 4745 1
6126 4744 4746 1
6127 4745 4760 1
6128 4747 4750 1
6129 4747 4748 1
6130 4747 4749 1
6131 4748 4769 1
6132 4750 4751 1
6133 4751 5127 1
6134 4751 5072 1
6135 4751 4752 1
6136 4753 4762 1
6137 4753 4765 1
6138 4754 4758 1
6139 4754 4755 1
6140 4754 4757 1
6141 4755 4756 1
6142 4756 4759 1
6143 4756 4794 1
6144 4759 4760 1
6145 4760 4800 1
6146 4760 4761 1
6147 4761 4762 1
6148 4762 4764 1
6149 4762 4763 1
6150 4765 4767 1
6151 4765 4768 1
6152 4765 4766 1
6153 4768 4769 1
6154 4769 4770 1
6155 4769 4803 1
6156 4771 4780 1
6157 4771 4783 1
6158 4772 4776 1
6159 4772 4773 1
6160 4772 4775 1
6161 4773 4774 1
6162 4774 4793 1
6163 4774 4777 1
6164 4774 4812 1
6165 4777 4778 1
6166 4778 4799 1
6167 4778 4818 1
6168 4778 4779 1
6169 4779 4780 1
6170 4780 4782 1
6171 4780 4781 1
6172 4783 4785 1
6173 4783 4786 1
6174 4783 4784 1
6175 4786 4787 1
6176 4787 4802 1
6177 4787 4788 1
6178 4787 4821 1
6179 4789 4798 1
6180 4789 4801 1
6181 4790 4794 1
6182 4790 4791 1
6183 4790 4793 1
6184 4791 4792 1
6185 4792 5117 1
6186 4792 4795 1
6187 4792 5136 1
6188 4795 4796 1
6189 4796 5123 1
6190 4796 4797 1
6191 4796 5142 1
6192 4797 4798 1
6193 4798 4800 1
6194 4798 4799 1
6195 4801 4803 1
6196 4801 4804 1
6197 4801 4802 1
6198 4804 4805 1
6199 4805 5126 1
6200 4805 4806 1
6201 4805 5145 1
6202 4807 4816 1
6203 4807 4819 1
6204 4808 4811 1
6205 4808 4812 1
6206 4808 4809 1
6207 4809 4810 1
6208 4810 5135 1
6209 4810 5190 1
6210 4810 4813 1
6211 4811 4828 1
6212 4813 4814 1
6213 4814 5141 1
6214 4814 5196 1
6215 4814 4815 1
6216 4815 4816 1
6217 4816 4817 1
6218 4816 4818 1
6219 4817 4832 1
6220 4819 4820 1
6221 4819 4821 1
6222 4819 4822 1
6223 4820 4841 1
6224 4822 4823 1
6225 4823 5144 1
6226 4823 5199 1
6227 4823 4824 1
6228 4825 4834 1
6229 4825 4837 1
6230 4826 4829 1
6231 4826 4827 1
6232 4826 4830 1
6233 4827 4828 1
6234 4828 4866 1
6235 4828 4831 1
6236 4831 4832 1
6237 4832 4872 1
6238 4832 4833 1
6239 4833 4834 1
6240 4834 4835 1
6241 4834 4836 1
6242 4837 4838 1
6243 4837 4840 1
6244 4837 4839 1
6245 4840 4841 1
6246 4841 4875 1
6247 4841 4842 1
6248 4843 4852 1
6249 4843 4855 1
6250 4844 4847 1
6251 4844 4845 1
6252 4844 4848 1
6253 4845 4846 1
6254 4846 4884 1
6255 4846 4849 1
6256 4846 4865 1
6257 4849 4850 1
6258 4850 4890 1
6259 4850 4871 1
6260 4850 4851 1
6261 4851 4852 1
6262 4852 4853 1
6263 4852 4854 1
6264 4855 4856 1
6265 4855 4858 1
6266 4855 4857 1
6267 4858 4859 1
6268 4859 4893 1
6269 4859 4860 1
6270 4859 4874 1
6271 4861 4870 1
6272 4861 4873 1
6273 4862 4865 1
6274 4862 4863 1
6275 4862 4866 1
6276 4863 4864 1
6277 4864 5208 1
6278 4864 4867 1
6279 4864 5189 1
6280 4867 4868 1
6281 4868 5214 1
6282 4868 4869 1
6283 4868 5195 1
6284 4869 4870 1
6285 4870 4871 1
6286 4870 4872 1
6287 4873 4874 1
6288 4873 4876 1
6289 4873 4875 1
6290 4876 4877 1
6291 4877 5217 1
6292 4877 4878 1
6293 4877 5198 1
6294 4879 4888 1
6295 4879 4891 1
6296 4880 4883 1
6297 4880 4881 1
6298 4880 4884 1
6299 4881 4882 1
6300 4882 5262 1
6301 4882 4885 1
6302 4882 5207 1
6303 4883 4900 1
6304 4885 4886 1
6305 4886 5268 1
6306 4886 4887 1
6307 4886 5213 1
6308 4887 4888 1
6309 4888 4889 1
6310 4888 4890 1
6311 4889 4904 1
6312 4891 4892 1
6313 4891 4894 1
6314 4891 4893 1
6315 4892 4913 1
6316 4894 4895 1
6317 4895 5271 1
6318 4895 4896 1
6319 4895 5216 1
6320 4897 4906 1
6321 4897 4909 1
6322 4898 4901 1
6323 4898 4899 1
6324 4898 4902 1
6325 4899 4900 1
6326 4900 4938 1
6327 4900 4903 1
6328 4903 4904 1
6329 4904 4944 1
6330 4904 4905 1
6331 4905 4906 1
6332 4906 4907 1
6333 4906 4908 1
6334 4909 4910 1
6335 4909 4912 1
6336 4909 4911 1
6337 4912 4913 1
6338 4913 4947 1
6339 4913 4914 1
6340 4915 4924 1
6341 4915 4927 1
6342 4916 4919 1
6343 4916 4917 1
6344 4916 4920 1
6345 4917 4918 1
6346 4918 4956 1
6347 4918 4921 1
6348 4918 4937 1
6349 4921 4922 1
6350 4922 4962 1
6351 4922 4943 1
6352 4922 4923 1
6353 4923 4924 1
6354 4924 4925 1
6355 4924 4926 1
6356 4927 4928 1
6357 4927 4930 1
6358 4927 4929 1
6359 4930 4931 1
6360 4931 4965 1
6361 4931 4932 1
6362 4931 4946 1
6363 4933 4942 1
6364 4933 4945 1
6365 4934 4937 1
6366 4934 4935 1
6367 4934 4938 1
6368 4935 4936 1
6369 4936 5280 1
6370 4936 4939 1
6371 4936 5261 1
6372 4939 4940 1
6373 4940 5286 1
6374 4940 4941 1
6375 4940 5267 1
6376 4941 4942 1
6377 4942 4943 1
6378 4942 4944 1
6379 4945 4946 1
6380 4945 4948 1
6381 4945 4947 1
6382 4948 4949 1
6383 4949 5289 1
6384 4949 4950 1
6385 4949 5270 1
6386 4951 4960 1
6387 4951 4963 1
6388 4952 4956 1
6389 4952 4953 1
6390 4952 4955 1
6391 4953 4954 1
6392 4954 5279 1
6393 4954 4957 1
6394 4954 5334 1
6395 4955 4972 1
6396 4957 4958 1
6397 4958 5285 1
6398 4958 4959 1
6399 4958 5340 1
6400 4959 4960 1
6401 4960 4962 1
6402 4960 4961 1
6403 4961 4976 1
6404 4963 4965 1
6405 4963 4966 1
6406 4963 4964 1
6407 4964 4985 1
6408 4966 4967 1
6409 4967 5288 1
6410 4967 4968 1
6411 4967 5343 1
6412 4969 4978 1
6413 4969 4981 1
6414 4970 4974 1
6415 4970 4971 1
6416 4970 4973 1
6417 4971 4972 1
6418 4972 4975 1
6419 4972 5010 1
6420 4975 4976 1
6421 4976 5016 1
6422 4976 4977 1
6423 4977 4978 1
6424 4978 4980 1
6425 4978 4979 1
6426 4981 4983 1
6427 4981 4984 1
6428 4981 4982 1
6429 4984 4985 1
6430 4985 4986 1
6431 4985 5019 1
6432 4987 4996 1
6433 4987 4999 1
6434 4988 4992 1
6435 4988 4989 1
6436 4988 4991 1
6437 4989 4990 1
6438 4990 5009 1
6439 4990 4993 1
6440 4990 5028 1
6441 4993 4994 1
6442 4994 5015 1
6443 4994 5034 1
6444 4994 4995 1
6445 4995 4996 1
6446 4996 4998 1
6447 4996 4997 1
6448 4999 5001 1
6449 4999 5002 1
6450 4999 5000 1
6451 5002 5003 1
6452 5003 5018 1
6453 5003 5004 1
6454 5003 5037 1
6455 5005 5014 1
6456 5005 5017 1
6457 5006 5010 1
6458 5006 5007 1
6459 5006 5009 1
6460 5007 5008 1
6461 5008 5333 1
6462 5008 5011 1
6463 5008 5352 1
6464 5011 5012 1
6465 5012 5339 1
6466 5012 5013 1
6467 5012 5358 1
6468 5013 5014 1
6469 5014 5016 1
6470 5014 5015 1
6471 5017 5019 1
6472 5017 5020 1
6473 5017 5018 1
6474 5020 5021 1
6475 5021 5342 1
6476 5021 5022 1
6477 5021 5361 1
6478 5023 5032 1
6479 5023 5035 1
6480 5024 5028 1
6481 5024 5025 1
6482 5024 5027 1
6483 5025 5026 1
6484 5026 5351 1
6485 5026 5029 1
6486 5026 5046 1
6487 5029 5030 1
6488 5030 5357 1
6489 5030 5031 1
6490 5030 5052 1
6491 5031 5032 1
6492 5032 5034 1
6493 5032 5033 1
6494 5035 5037 1
6495 5035 5038 1
6496 5035 5036 1
6497 5038 5039 1
6498 5039 5360 1
6499 5039 5040 1
6500 5039 5055 1
6501 5041 5050 1
6502 5041 5053 1
6503 5042 5045 1
6504 5042 5046 1
6505 5042 5043 1
6506 5043 5044 1
6507 5044 5082 1
6508 5044 5047 1
6509 5044 5387 1
6510 5047 5048 1
6511 5048 5049 1
6512 5048 5088 1
6513 5048 5393 1
6514 5049 5050 1
6515 5050 5051 1
6516 5050 5052 1
6517 5053 5054 1
6518 5053 5055 1
6519 5053 5056 1
6520 5056 5057 1
6521 5057 5091 1
6522 5057 5058 1
6523 5057 5396 1
6524 5059 5068 1
6525 5059 5071 1
6526 5060 5064 1
6527 5060 5063 1
6528 5060 5061 1
6529 5061 5062 1
6530 5062 5081 1
6531 5062 5100 1
6532 5062 5065 1
6533 5065 5066 1
6534 5066 5067 1
6535 5066 5087 1
6536 5066 5106 1
6537 5067 5068 1
6538 5068 5070 1
6539 5068 5069 1
6540 5071 5073 1
6541 5071 5072 1
6542 5071 5074 1
6543 5074 5075 1
6544 5075 5090 1
6545 5075 5109 1
6546 5075 5076 1
6547 5077 5086 1
6548 5077 5089 1
6549 5078 5079 1
6550 5078 5081 1
6551 5078 5082 1
6552 5079 5080 1
6553 5080 5083 1
6554 5083 5084 1
6555 5084 5085 1
6556 5085 5086 1
6557 5086 5087 1
6558 5086 5088 1
6559 5089 5092 1
6560 5089 5090 1
6561 5089 5091 1
6562 5092 5093 1
6563 5093 5094 1
6564 5095 5104 1
6565 5095 5107 1
6566 5096 5097 1
6567 5096 5099 1
6568 5096 5100 1
6569 5097 5098 1
6570 5098 5101 1
6571 5099 5116 1
6572 5101 5102 1
6573 5102 5103 1
6574 5103 5104 1
6575 5104 5105 1
6576 5104 5106 1
6577 5105 5120 1
6578 5107 5110 1
6579 5107 5108 1
6580 5107 5109 1
6581 5108 5129 1
6582 5110 5111 1
6583 5111 5112 1
6584 5113 5122 1
6585 5113 5125 1
6586 5114 5118 1
6587 5114 5117 1
6588 5114 5115 1
6589 5115 5116 1
6590 5116 5119 1
6591 5116 5154 1
6592 5119 5120 1
6593 5120 5121 1
6594 5120 5160 1
6595 5121 5122 1
6596 5122 5124 1
6597 5122 5123 1
6598 5125 5127 1
6599 5125 5126 1
6600 5125 5128 1
6601 5128 5129 1
6602 5129 5130 1
6603 5129 5163 1
6604 5131 5140 1
6605 5131 5143 1
6606 5132 5136 1
6607 5132 5135 1
6608 5132 5133 1
6609 5133 5134 1
6610 5134 5153 1
6611 5134 5137 1
6612 5134 5172 1
6613 5137 5138 1
6614 5138 5159 1
6615 5138 5139 1
6616 5138 5178 1
6617 5139 5140 1
6618 5140 5142 1
6619 5140 5141 1
6620 5143 5145 1
6621 5143 5144 1
6622 5143 5146 1
6623 5146 5147 1
6624 5147 5162 1
6625 5147 5148 1
6626 5147 5181 1
6627 5149 5158 1
6628 5149 5161 1
6629 5150 5154 1
6630 5150 5151 1
6631 5150 5153 1
6632 5151 5152 1
6633 5152 5155 1
6634 5155 5156 1
6635 5156 5157 1
6636 5157 5158 1
6637 5158 5160 1
6638 5158 5159 1
6639 5161 5163 1
6640 5161 5164 1
6641 5161 5162 1
6642 5164 5165 1
6643 5165 5166 1
6644 5167 5176 1
6645 5167 5179 1
6646 5168 5171 1
6647 5168 5172 1
6648 5168 5169 1
6649 5169 5170 1
6650 5170 5173 1
6651 5171 5188 1
6652 5173 5174 1
6653 5174 5175 1
6654 5175 5176 1
6655 5176 5177 1
6656 5176 5178 1
6657 5177 5192 1
6658 5179 5180 1
6659 5179 5181 1
6660 5179 5182 1
6661 5180 5201 1
6662 5182 5183 1
6663 5183 5184 1
6664 5185 5194 1
6665 5185 5197 1
6666 5186 5189 1
6667 5186 5190 1
6668 5186 5187 1
6669 5187 5188 1
6670 5188 5226 1
6671 5188 5191 1
6672 5191 5192 1
6673 5192 5232 1
6674 5192 5193 1
6675 5193 5194 1
6676 5194 5195 1
6677 5194 5196 1
6678 5197 5198 1
6679 5197 5199 1
6680 5197 5200 1
6681 5200 5201 1
6682 5201 5235 1
6683 5201 5202 1
6684 5203 5212 1
6685 5203 5215 1
6686 5204 5207 1
6687 5204 5208 1
6688 5204 5205 1
6689 5205 5206 1
6690 5206 5244 1
6691 5206 5209 1
6692 5206 5225 1
6693 5209 5210 1
6694 5210 5250 1
6695 5210 5211 1
6696 5210 5231 1
6697 5211 5212 1
6698 5212 5213 1
6699 5212 5214 1
6700 5215 5216 1
6701 5215 5217 1
6702 5215 5218 1
6703 5218 5219 1
6704 5219 5253 1
6705 5219 5220 1
6706 5219 5234 1
6707 5221 5230 1
6708 5221 5233 1
6709 5222 5225 1
6710 5222 5223 1
6711 5222 5226 1
6712 5223 5224 1
6713 5224 5227 1
6714 5227 5228 1
6715 5228 5229 1
6716 5229 5230 1
6717 5230 5231 1
6718 5230 5232 1
6719 5233 5234 1
6720 5233 5236 1
6721 5233 5235 1
6722 5236 5237 1
6723 5237 5238 1
6724 5239 5248 1
6725 5239 5251 1
6726 5240 5243 1
6727 5240 5241 1
6728 5240 5244 1
6729 5241 5242 1
6730 5242 5245 1
6731 5243 5260 1
6732 5245 5246 1
6733 5246 5247 1
6734 5247 5248 1
6735 5248 5249 1
6736 5248 5250 1
6737 5249 5264 1
6738 5251 5252 1
6739 5251 5254 1
6740 5251 5253 1
6741 5252 5273 1
6742 5254 5255 1
6743 5255 5256 1
6744 5257 5266 1
6745 5257 5269 1
6746 5258 5261 1
6747 5258 5262 1
6748 5258 5259 1
6749 5259 5260 1
6750 5260 5298 1
6751 5260 5263 1
6752 5263 5264 1
6753 5264 5304 1
6754 5264 5265 1
6755 5265 5266 1
6756 5266 5267 1
6757 5266 5268 1
6758 5269 5270 1
6759 5269 5271 1
6760 5269 5272 1
6761 5272 5273 1
6762 5273 5307 1
6763 5273 5274 1
6764 5275 5284 1
6765 5275 5287 1
6766 5276 5279 1
6767 5276 5280 1
6768 5276 5277 1
6769 5277 5278 1
6770 5278 5316 1
6771 5278 5281 1
6772 5278 5297 1
6773 5281 5282 1
6774 5282 5322 1
6775 5282 5283 1
6776 5282 5303 1
6777 5283 5284 1
6778 5284 5285 1
6779 5284 5286 1
6780 5287 5288 1
6781 5287 5289 1
6782 5287 5290 1
6783 5290 5291 1
6784 5291 5325 1
6785 5291 5292 1
6786 5291 5306 1
6787 5293 5302 1
6788 5293 5305 1
6789 5294 5297 1
6790 5294 5295 1
6791 5294 5298 1
6792 5295 5296 1
6793 5296 5299 1
6794 5299 5300 1
6795 5300 5301 1
6796 5301 5302 1
6797 5302 5303 1
6798 5302 5304 1
6799 5305 5306 1
6800 5305 5308 1
6801 5305 5307 1
6802 5308 5309 1
6803 5309 5310 1
6804 5311 5320 1
6805 5311 5323 1
6806 5312 5316 1
6807 5312 5313 1
6808 5312 5315 1
6809 5313 5314 1
6810 5314 5317 1
6811 5315 5332 1
6812 5317 5318 1
6813 5318 5319 1
6814 5319 5320 1
6815 5320 5322 1
6816 5320 5321 1
6817 5321 5336 1
6818 5323 5325 1
6819 5323 5326 1
6820 5323 5324 1
6821 5324 5345 1
6822 5326 5327 1
6823 5327 5328 1
6824 5329 5338 1
6825 5329 5341 1
6826 5330 5334 1
6827 5330 5333 1
6828 5330 5331 1
6829 5331 5332 1
6830 5332 5335 1
6831 5332 5370 1
6832 5335 5336 1
6833 5336 5337 1
6834 5336 5376 1
6835 5337 5338 1
6836 5338 5340 1
6837 5338 5339 1
6838 5341 5343 1
6839 5341 5342 1
6840 5341 5344 1
6841 5344 5345 1
6842 5345 5346 1
6843 5345 5379 1
6844 5347 5356 1
6845 5347 5359 1
6846 5348 5352 1
6847 5348 5351 1
6848 5348 5349 1
6849 5349 5350 1
6850 5350 5369 1
6851 5350 5353 1
6852 5350 5388 1
6853 5353 5354 1
6854 5354 5375 1
6855 5354 5355 1
6856 5354 5394 1
6857 5355 5356 1
6858 5356 5358 1
6859 5356 5357 1
6860 5359 5361 1
6861 5359 5360 1
6862 5359 5362 1
6863 5362 5363 1
6864 5363 5378 1
6865 5363 5364 1
6866 5363 5397 1
6867 5365 5374 1
6868 5365 5377 1
6869 5366 5370 1
6870 5366 5367 1
6871 5366 5369 1
6872 5367 5368 1
6873 5368 5371 1
6874 5371 5372 1
6875 5372 5373 1
6876 5373 5374 1
6877 5374 5376 1
6878 5374 5375 1
6879 5377 5379 1
6880 5377 5380 1
6881 5377 5378 1
6882 5380 5381 1
6883 5381 5382 1
6884 5383 5392 1
6885 5383 5395 1
6886 5384 5388 1
6887 5384 5385 1
6888 5384 5387 1
6889 5385 5386 1
6890 5386 5389 1
6891 5389 5390 1
6892 5390 5391 1
6893 5391 5392 1
6894 5392 5394 1
6895 5392 5393 1
6896 5395 5397 1
6897 5395 5398 1
6898 5395 5396 1
6899 5398 5399 1
6900 5399 5400 1
6901 5401 5410 1
6902 5401 5413 1
6903 5402 5405 1
6904 5402 5406 1
6905 5402 5403 1
6906 5403 5404 1
6907 5404 5442 1
6908 5404 5407 1
6909 5404 5747 1
6910 5405 6880 1
6911 5406 7186 1
6912 5407 5408 1
6913 5408 5409 1
6914 5408 5448 1
6915 5408 5753 1
6916 5409 5410 1
6917 5410 5411 1
6918 5410 5412 1
6919 5411 6884 1
6920 5412 7190 1
6921 5413 5414 1
6922 5413 5415 1
6923 5413 5416 1
6924 5414 6893 1
6925 5415 7199 1
6926 5416 5417 1
6927 5417 5451 1
6928 5417 5418 1
6929 5417 5756 1
6930 5419 5428 1
6931 5419 5431 1
6932 5420 5424 1
6933 5420 5423 1
6934 5420 5421 1
6935 5421 5422 1
6936 5422 5441 1
6937 5422 5425 1
6938 5422 5460 1
6939 5423 6898 1
6940 5424 6880 1
6941 5425 5426 1
6942 5426 5427 1
6943 5426 5447 1
6944 5426 5466 1
6945 5427 5428 1
6946 5428 5430 1
6947 5428 5429 1
6948 5429 6902 1
6949 5430 6884 1
6950 5431 5433 1
6951 5431 5432 1
6952 5431 5434 1
6953 5432 6911 1
6954 5433 6893 1
6955 5434 5435 1
6956 5435 5450 1
6957 5435 5469 1
6958 5435 5436 1
6959 5437 5446 1
6960 5437 5449 1
6961 5438 5439 1
6962 5438 5441 1
6963 5438 5442 1
6964 5439 5440 1
6965 5440 5443 1
6966 5440 5784 1
6967 5440 5765 1
6968 5443 5444 1
6969 5444 5445 1
6970 5444 5790 1
6971 5444 5771 1
6972 5445 5446 1
6973 5446 5447 1
6974 5446 5448 1
6975 5449 5452 1
6976 5449 5450 1
6977 5449 5451 1
6978 5452 5453 1
6979 5453 5793 1
6980 5453 5774 1
6981 5453 5454 1
6982 5455 5464 1
6983 5455 5467 1
6984 5456 5459 1
6985 5456 5457 1
6986 5456 5460 1
6987 5457 5458 1
6988 5458 5838 1
6989 5458 5461 1
6990 5458 5783 1
6991 5459 5476 1
6992 5461 5462 1
6993 5462 5844 1
6994 5462 5463 1
6995 5462 5789 1
6996 5463 5464 1
6997 5464 5465 1
6998 5464 5466 1
6999 5465 5480 1
7000 5467 5468 1
7001 5467 5470 1
7002 5467 5469 1
7003 5468 5489 1
7004 5470 5471 1
7005 5471 5847 1
7006 5471 5792 1
7007 5471 5472 1
7008 5473 5482 1
7009 5473 5485 1
7010 5474 5478 1
7011 5474 5475 1
7012 5474 5477 1
7013 5475 5476 1
7014 5476 5479 1
7015 5476 5514 1
7016 5477 6952 1
7017 5478 6898 1
7018 5479 5480 1
7019 5480 5481 1
7020 5480 5520 1
7021 5481 5482 1
7022 5482 5484 1
7023 5482 5483 1
7024 5483 6956 1
7025 5484 6902 1
7026 5485 5487 1
7027 5485 5488 1
7028 5485 5486 1
7029 5486 6965 1
7030 5487 6911 1
7031 5488 5489 1
7032 5489 5490 1
7033 5489 5523 1
7034 5491 5500 1
7035 5491 5503 1
7036 5492 5496 1
7037 5492 5493 1
7038 5492 5495 1
7039 5493 5494 1
7040 5494 5513 1
7041 5494 5497 1
7042 5494 5532 1
7043 5495 6970 1
7044 5496 6952 1
7045 5497 5498 1
7046 5498 5519 1
7047 5498 5499 1
7048 5498 5538 1
7049 5499 5500 1
7050 5500 5502 1
7051 5500 5501 1
7052 5501 6974 1
7053 5502 6956 1
7054 5503 5505 1
7055 5503 5506 1
7056 5503 5504 1
7057 5504 6983 1
7058 5505 6965 1
7059 5506 5507 1
7060 5507 5522 1
7061 5507 5508 1
7062 5507 5541 1
7063 5509 5518 1
7064 5509 5521 1
7065 5510 5514 1
7066 5510 5511 1
7067 5510 5513 1
7068 5511 5512 1
7069 5512 5837 1
7070 5512 5515 1
7071 5512 5856 1
7072 5515 5516 1
7073 5516 5843 1
7074 5516 5517 1
7075 5516 5862 1
7076 5517 5518 1
7077 5518 5520 1
7078 5518 5519 1
7079 5521 5523 1
7080 5521 5524 1
7081 5521 5522 1
7082 5524 5525 1
7083 5525 5846 1
7084 5525 5526 1
7085 5525 5865 1
7086 5527 5536 1
7087 5527 5539 1
7088 5528 5531 1
7089 5528 5532 1
7090 5528 5529 1
7091 5529 5530 1
7092 5530 5855 1
7093 5530 5910 1
7094 5530 5533 1
7095 5531 5548 1
7096 5533 5534 1
7097 5534 5861 1
7098 5534 5916 1
7099 5534 5535 1
7100 5535 5536 1
7101 5536 5537 1
7102 5536 5538 1
7103 5537 5552 1
7104 5539 5540 1
7105 5539 5541 1
7106 5539 5542 1
7107 5540 5561 1
7108 5542 5543 1
7109 5543 5864 1
7110 5543 5919 1
7111 5543 5544 1
7112 5545 5554 1
7113 5545 5557 1
7114 5546 5549 1
7115 5546 5547 1
7116 5546 5550 1
7117 5547 5548 1
7118 5548 5586 1
7119 5548 5551 1
7120 5549 7024 1
7121 5550 6970 1
7122 5551 5552 1
7123 5552 5592 1
7124 5552 5553 1
7125 5553 5554 1
7126 5554 5555 1
7127 5554 5556 1
7128 5555 7028 1
7129 5556 6974 1
7130 5557 5558 1
7131 5557 5560 1
7132 5557 5559 1
7133 5558 7037 1
7134 5559 6983 1
7135 5560 5561 1
7136 5561 5595 1
7137 5561 5562 1
7138 5563 5572 1
7139 5563 5575 1
7140 5564 5567 1
7141 5564 5565 1
7142 5564 5568 1
7143 5565 5566 1
7144 5566 5604 1
7145 5566 5569 1
7146 5566 5585 1
7147 5567 7042 1
7148 5568 7024 1
7149 5569 5570 1
7150 5570 5610 1
7151 5570 5571 1
7152 5570 5591 1
7153 5571 5572 1
7154 5572 5573 1
7155 5572 5574 1
7156 5573 7046 1
7157 5574 7028 1
7158 5575 5576 1
7159 5575 5578 1
7160 5575 5577 1
7161 5576 7055 1
7162 5577 7037 1
7163 5578 5579 1
7164 5579 5613 1
7165 5579 5580 1
7166 5579 5594 1
7167 5581 5590 1
7168 5581 5593 1
7169 5582 5585 1
7170 5582 5583 1
7171 5582 5586 1
7172 5583 5584 1
7173 5584 5928 1
7174 5584 5587 1
7175 5584 5909 1
7176 5587 5588 1
7177 5588 5934 1
7178 5588 5589 1
7179 5588 5915 1
7180 5589 5590 1
7181 5590 5591 1
7182 5590 5592 1
7183 5593 5594 1
7184 5593 5596 1
7185 5593 5595 1
7186 5596 5597 1
7187 5597 5937 1
7188 5597 5598 1
7189 5597 5918 1
7190 5599 5608 1
7191 5599 5611 1
7192 5600 5603 1
7193 5600 5601 1
7194 5600 5604 1
7195 5601 5602 1
7196 5602 5982 1
7197 5602 5605 1
7198 5602 5927 1
7199 5603 5620 1
7200 5605 5606 1
7201 5606 5988 1
7202 5606 5607 1
7203 5606 5933 1
7204 5607 5608 1
7205 5608 5609 1
7206 5608 5610 1
7207 5609 5624 1
7208 5611 5612 1
7209 5611 5614 1
7210 5611 5613 1
7211 5612 5633 1
7212 5614 5615 1
7213 5615 5991 1
7214 5615 5616 1
7215 5615 5936 1
7216 5617 5626 1
7217 5617 5629 1
7218 5618 5621 1
7219 5618 5619 1
7220 5618 5622 1
7221 5619 5620 1
7222 5620 5658 1
7223 5620 5623 1
7224 5621 7096 1
7225 5622 7042 1
7226 5623 5624 1
7227 5624 5664 1
7228 5624 5625 1
7229 5625 5626 1
7230 5626 5627 1
7231 5626 5628 1
7232 5627 7100 1
7233 5628 7046 1
7234 5629 5630 1
7235 5629 5632 1
7236 5629 5631 1
7237 5630 7109 1
7238 5631 7055 1
7239 5632 5633 1
7240 5633 5667 1
7241 5633 5634 1
7242 5635 5644 1
7243 5635 5647 1
7244 5636 5639 1
7245 5636 5637 1
7246 5636 5640 1
7247 5637 5638 1
7248 5638 5676 1
7249 5638 5641 1
7250 5638 5657 1
7251 5639 7114 1
7252 5640 7096 1
7253 5641 5642 1
7254 5642 5682 1
7255 5642 5643 1
7256 5642 5663 1
7257 5643 5644 1
7258 5644 5645 1
7259 5644 5646 1
7260 5645 7118 1
7261 5646 7100 1
7262 5647 5648 1
7263 5647 5650 1
7264 5647 5649 1
7265 5648 7127 1
7266 5649 7109 1
7267 5650 5651 1
7268 5651 5685 1
7269 5651 5652 1
7270 5651 5666 1
7271 5653 5662 1
7272 5653 5665 1
7273 5654 5657 1
7274 5654 5655 1
7275 5654 5658 1
7276 5655 5656 1
7277 5656 6000 1
7278 5656 5659 1
7279 5656 5981 1
7280 5659 5660 1
7281 5660 6006 1
7282 5660 5661 1
7283 5660 5987 1
7284 5661 5662 1
7285 5662 5663 1
7286 5662 5664 1
7287 5665 5666 1
7288 5665 5668 1
7289 5665 5667 1
7290 5668 5669 1
7291 5669 6009 1
7292 5669 5670 1
7293 5669 5990 1
7294 5671 5680 1
7295 5671 5683 1
7296 5672 5676 1
7297 5672 5673 1
7298 5672 5675 1
7299 5673 5674 1
7300 5674 5999 1
7301 5674 5677 1
7302 5674 6054 1
7303 5675 5692 1
7304 5677 5678 1
7305 5678 6005 1
7306 5678 5679 1
7307 5678 6060 1
7308 5679 5680 1
7309 5680 5682 1
7310 5680 5681 1
7311 5681 5696 1
7312 5683 5685 1
7313 5683 5686 1
7314 5683 5684 1
7315 5684 5705 1
7316 5686 5687 1
7317 5687 6008 1
7318 5687 5688 1
7319 5687 6063 1
7320 5689 5698 1
7321 5689 5701 1
7322 5690 5694 1
7323 5690 5691 1
7324 5690 5693 1
7325 5691 5692 1
7326 5692 5695 1
7327 5692 5730 1
7328 5693 7168 1
7329 5694 7114 1
7330 5695 5696 1
7331 5696 5697 1
7332 5696 5736 1
7333 5697 5698 1
7334 5698 5700 1
7335 5698 5699 1
7336 5699 7172 1
7337 5700 7118 1
7338 5701 5703 1
7339 5701 5704 1
7340 5701 5702 1
7341 5702 7181 1
7342 5703 7127 1
7343 5704 5705 1
7344 5705 5706 1
7345 5705 5739 1
7346 5707 5716 1
7347 5707 5719 1
7348 5708 5712 1
7349 5708 5709 1
7350 5708 5711 1
7351 5709 5710 1
7352 5710 5729 1
7353 5710 5713 1
7354 5710 5748 1
7355 5711 7186 1
7356 5712 7168 1
7357 5713 5714 1
7358 5714 5735 1
7359 5714 5715 1
7360 5714 5754 1
7361 5715 5716 1
7362 5716 5718 1
7363 5716 5717 1
7364 5717 7190 1
7365 5718 7172 1
7366 5719 5721 1
7367 5719 5722 1
7368 5719 5720 1
7369 5720 7199 1
7370 5721 7181 1
7371 5722 5723 1
7372 5723 5738 1
7373 5723 5724 1
7374 5723 5757 1
7375 5725 5734 1
7376 5725 5737 1
7377 5726 5730 1
7378 5726 5727 1
7379 5726 5729 1
7380 5727 5728 1
7381 5728 6053 1
7382 5728 5731 1
7383 5728 6072 1
7384 5731 5732 1
7385 5732 6059 1
7386 5732 5733 1
7387 5732 6078 1
7388 5733 5734 1
7389 5734 5736 1
7390 5734 5735 1
7391 5737 5739 1
7392 5737 5740 1
7393 5737 5738 1
7394 5740 5741 1
7395 5741 6062 1
7396 5741 5742 1
7397 5741 6081 1
7398 5743 5752 1
7399 5743 5755 1
7400 5744 5748 1
7401 5744 5745 1
7402 5744 5747 1
7403 5745 5746 1
7404 5746 6071 1
7405 5746 5749 1
7406 5746 5766 1
7407 5749 5750 1
7408 5750 6077 1
7409 5750 5751 1
7410 5750 5772 1
7411 5751 5752 1
7412 5752 5754 1
7413 5752 5753 1
7414 5755 5757 1
7415 5755 5758 1
7416 5755 5756 1
7417 5758 5759 1
7418 5759 6080 1
7419 5759 5760 1
7420 5759 5775 1
7421 5761 5770 1
7422 5761 5773 1
7423 5762 5763 1
7424 5762 5765 1
7425 5762 5766 1
7426 5763 5764 1
7427 5764 5802 1
7428 5764 5767 1
7429 5764 6107 1
7430 5767 5768 1
7431 5768 5808 1
7432 5768 5769 1
7433 5768 6113 1
7434 5769 5770 1
7435 5770 5771 1
7436 5770 5772 1
7437 5773 5776 1
7438 5773 5774 1
7439 5773 5775 1
7440 5776 5777 1
7441 5777 5811 1
7442 5777 5778 1
7443 5777 6116 1
7444 5779 5788 1
7445 5779 5791 1
7446 5780 5781 1
7447 5780 5784 1
7448 5780 5783 1
7449 5781 5782 1
7450 5782 5801 1
7451 5782 5820 1
7452 5782 5785 1
7453 5785 5786 1
7454 5786 5807 1
7455 5786 5826 1
7456 5786 5787 1
7457 5787 5788 1
7458 5788 5790 1
7459 5788 5789 1
7460 5791 5794 1
7461 5791 5793 1
7462 5791 5792 1
7463 5794 5795 1
7464 5795 5810 1
7465 5795 5829 1
7466 5795 5796 1
7467 5797 5806 1
7468 5797 5809 1
7469 5798 5799 1
7470 5798 5801 1
7471 5798 5802 1
7472 5799 5800 1
7473 5800 6144 1
7474 5800 6125 1
7475 5800 5803 1
7476 5803 5804 1
7477 5804 5805 1
7478 5804 6150 1
7479 5804 6131 1
7480 5805 5806 1
7481 5806 5807 1
7482 5806 5808 1
7483 5809 5812 1
7484 5809 5810 1
7485 5809 5811 1
7486 5812 5813 1
7487 5813 6153 1
7488 5813 6134 1
7489 5813 5814 1
7490 5815 5824 1
7491 5815 5827 1
7492 5816 5817 1
7493 5816 5819 1
7494 5816 5820 1
7495 5817 5818 1
7496 5818 6198 1
7497 5818 6143 1
7498 5818 5821 1
7499 5819 5836 1
7500 5821 5822 1
7501 5822 5823 1
7502 5822 6204 1
7503 5822 6149 1
7504 5823 5824 1
7505 5824 5825 1
7506 5824 5826 1
7507 5825 5840 1
7508 5827 5830 1
7509 5827 5828 1
7510 5827 5829 1
7511 5828 5849 1
7512 5830 5831 1
7513 5831 6207 1
7514 5831 6152 1
7515 5831 5832 1
7516 5833 5842 1
7517 5833 5845 1
7518 5834 5835 1
7519 5834 5838 1
7520 5834 5837 1
7521 5835 5836 1
7522 5836 5839 1
7523 5836 5874 1
7524 5839 5840 1
7525 5840 5880 1
7526 5840 5841 1
7527 5841 5842 1
7528 5842 5844 1
7529 5842 5843 1
7530 5845 5848 1
7531 5845 5847 1
7532 5845 5846 1
7533 5848 5849 1
7534 5849 5850 1
7535 5849 5883 1
7536 5851 5860 1
7537 5851 5863 1
7538 5852 5856 1
7539 5852 5853 1
7540 5852 5855 1
7541 5853 5854 1
7542 5854 5873 1
7543 5854 5857 1
7544 5854 5892 1
7545 5857 5858 1
7546 5858 5879 1
7547 5858 5898 1
7548 5858 5859 1
7549 5859 5860 1
7550 5860 5862 1
7551 5860 5861 1
7552 5863 5865 1
7553 5863 5866 1
7554 5863 5864 1
7555 5866 5867 1
7556 5867 5882 1
7557 5867 5868 1
7558 5867 5901 1
7559 5869 5878 1
7560 5869 5881 1
7561 5870 5874 1
7562 5870 5871 1
7563 5870 5873 1
7564 5871 5872 1
7565 5872 6197 1
7566 5872 5875 1
7567 5872 6216 1
7568 5875 5876 1
7569 5876 6203 1
7570 5876 5877 1
7571 5876 6222 1
7572 5877 5878 1
7573 5878 5880 1
7574 5878 5879 1
7575 5881 5883 1
7576 5881 5884 1
7577 5881 5882 1
7578 5884 5885 1
7579 5885 6206 1
7580 5885 5886 1
7581 5885 6225 1
7582 5887 5896 1
7583 5887 5899 1
7584 5888 5891 1
7585 5888 5892 1
7586 5888 5889 1
7587 5889 5890 1
7588 5890 6215 1
7589 5890 6270 1
7590 5890 5893 1
7591 5891 5908 1
7592 5893 5894 1
7593 5894 6221 1
7594 5894 6276 1
7595 5894 5895 1
7596 5895 5896 1
7597 5896 5897 1
7598 5896 5898 1
7599 5897 5912 1
7600 5899 5900 1
7601 5899 5901 1
7602 5899 5902 1
7603 5900 5921 1
7604 5902 5903 1
7605 5903 6224 1
7606 5903 6279 1
7607 5903 5904 1
7608 5905 5914 1
7609 5905 5917 1
7610 5906 5909 1
7611 5906 5907 1
7612 5906 5910 1
7613 5907 5908 1
7614 5908 5946 1
7615 5908 5911 1
7616 5911 5912 1
7617 5912 5952 1
7618 5912 5913 1
7619 5913 5914 1
7620 5914 5915 1
7621 5914 5916 1
7622 5917 5918 1
7623 5917 5920 1
7624 5917 5919 1
7625 5920 5921 1
7626 5921 5955 1
7627 5921 5922 1
7628 5923 5932 1
7629 5923 5935 1
7630 5924 5927 1
7631 5924 5925 1
7632 5924 5928 1
7633 5925 5926 1
7634 5926 5964 1
7635 5926 5929 1
7636 5926 5945 1
7637 5929 5930 1
7638 5930 5970 1
7639 5930 5951 1
7640 5930 5931 1
7641 5931 5932 1
7642 5932 5933 1
7643 5932 5934 1
7644 5935 5936 1
7645 5935 5938 1
7646 5935 5937 1
7647 5938 5939 1
7648 5939 5973 1
7649 5939 5940 1
7650 5939 5954 1
7651 5941 5950 1
7652 5941 5953 1
7653 5942 5945 1
7654 5942 5943 1
7655 5942 5946 1
7656 5943 5944 1
7657 5944 6288 1
7658 5944 5947 1
7659 5944 6269 1
7660 5947 5948 1
7661 5948 6294 1
7662 5948 5949 1
7663 5948 6275 1
7664 5949 5950 1
7665 5950 5951 1
7666 5950 5952 1
7667 5953 5954 1
7668 5953 5956 1
7669 5953 5955 1
7670 5956 5957 1
7671 5957 6297 1
7672 5957 5958 1
7673 5957 6278 1
7674 5959 5968 1
7675 5959 5971 1
7676 5960 5963 1
7677 5960 5961 1
7678 5960 5964 1
7679 5961 5962 1
7680 5962 6342 1
7681 5962 5965 1
7682 5962 6287 1
7683 5963 5980 1
7684 5965 5966 1
7685 5966 6348 1
7686 5966 5967 1
7687 5966 6293 1
7688 5967 5968 1
7689 5968 5969 1
7690 5968 5970 1
7691 5969 5984 1
7692 5971 5972 1
7693 5971 5974 1
7694 5971 5973 1
7695 5972 5993 1
7696 5974 5975 1
7697 5975 6351 1
7698 5975 5976 1
7699 5975 6296 1
7700 5977 5986 1
7701 5977 5989 1
7702 5978 5981 1
7703 5978 5979 1
7704 5978 5982 1
7705 5979 5980 1
7706 5980 6018 1
7707 5980 5983 1
7708 5983 5984 1
7709 5984 6024 1
7710 5984 5985 1
7711 5985 5986 1
7712 5986 5987 1
7713 5986 5988 1
7714 5989 5990 1
7715 5989 5992 1
7716 5989 5991 1
7717 5992 5993 1
7718 5993 6027 1
7719 5993 5994 1
7720 5995 6004 1
7721 5995 6007 1
7722 5996 5999 1
7723 5996 5997 1
7724 5996 6000 1
7725 5997 5998 1
7726 5998 6036 1
7727 5998 6001 1
7728 5998 6017 1
7729 6001 6002 1
7730 6002 6042 1
7731 6002 6023 1
7732 6002 6003 1
7733 6003 6004 1
7734 6004 6005 1
7735 6004 6006 1
7736 6007 6008 1
7737 6007 6010 1
7738 6007 6009 1
7739 6010 6011 1
7740 6011 6045 1
7741 6011 6012 1
7742 6011 6026 1
7743 6013 6022 1
7744 6013 6025 1
7745 6014 6017 1
7746 6014 6015 1
7747 6014 6018 1
7748 6015 6016 1
7749 6016 6360 1
7750 6016 6019 1
7751 6016 6341 1
7752 6019 6020 1
7753 6020 6366 1
7754 6020 6021 1
7755 6020 6347 1
7756 6021 6022 1
7757 6022 6023 1
7758 6022 6024 1
7759 6025 6026 1
7760 6025 6028 1
7761 6025 6027 1
7762 6028 6029 1
7763 6029 6369 1
7764 6029 6030 1
7765 6029 6350 1
7766 6031 6040 1
7767 6031 6043 1
7768 6032 6036 1
7769 6032 6033 1
7770 6032 6035 1
7771 6033 6034 1
7772 6034 6359 1
7773 6034 6037 1
7774 6034 6414 1
7775 6035 6052 1
7776 6037 6038 1
7777 6038 6365 1
7778 6038 6039 1
7779 6038 6420 1
7780 6039 6040 1
7781 6040 6042 1
7782 6040 6041 1
7783 6041 6056 1
7784 6043 6045 1
7785 6043 6046 1
7786 6043 6044 1
7787 6044 6065 1
7788 6046 6047 1
7789 6047 6368 1
7790 6047 6048 1
7791 6047 6423 1
7792 6049 6058 1
7793 6049 6061 1
7794 6050 6054 1
7795 6050 6051 1
7796 6050 6053 1
7797 6051 6052 1
7798 6052 6055 1
7799 6052 6090 1
7800 6055 6056 1
7801 6056 6096 1
7802 6056 6057 1
7803 6057 6058 1
7804 6058 6060 1
7805 6058 6059 1
7806 6061 6063 1
7807 6061 6064 1
7808 6061 6062 1
7809 6064 6065 1
7810 6065 6066 1
7811 6065 6099 1
7812 6067 6076 1
7813 6067 6079 1
7814 6068 6072 1
7815 6068 6069 1
7816 6068 6071 1
7817 6069 6070 1
7818 6070 6089 1
7819 6070 6073 1
7820 6070 6108 1
7821 6073 6074 1
7822 6074 6095 1
7823 6074 6114 1
7824 6074 6075 1
7825 6075 6076 1
7826 6076 6078 1
7827 6076 6077 1
7828 6079 6081 1
7829 6079 6082 1
7830 6079 6080 1
7831 6082 6083 1
7832 6083 6098 1
7833 6083 6084 1
7834 6083 6117 1
7835 6085 6094 1
7836 6085 6097 1
7837 6086 6090 1
7838 6086 6087 1
7839 6086 6089 1
7840 6087 6088 1
7841 6088 6413 1
7842 6088 6091 1
7843 6088 6432 1
7844 6091 6092 1
7845 6092 6419 1
7846 6092 6093 1
7847 6092 6438 1
7848 6093 6094 1
7849 6094 6096 1
7850 6094 6095 1
7851 6097 6099 1
7852 6097 6100 1
7853 6097 6098 1
7854 6100 6101 1
7855 6101 6422 1
7856 6101 6102 1
7857 6101 6441 1
7858 6103 6112 1
7859 6103 6115 1
7860 6104 6108 1
7861 6104 6105 1
7862 6104 6107 1
7863 6105 6106 1
7864 6106 6431 1
7865 6106 6109 1
7866 6106 6126 1
7867 6109 6110 1
7868 6110 6437 1
7869 6110 6111 1
7870 6110 6132 1
7871 6111 6112 1
7872 6112 6114 1
7873 6112 6113 1
7874 6115 6117 1
7875 6115 6118 1
7876 6115 6116 1
7877 6118 6119 1
7878 6119 6440 1
7879 6119 6120 1
7880 6119 6135 1
7881 6121 6130 1
7882 6121 6133 1
7883 6122 6123 1
7884 6122 6125 1
7885 6122 6126 1
7886 6123 6124 1
7887 6124 6162 1
7888 6124 6127 1
7889 6124 6467 1
7890 6127 6128 1
7891 6128 6168 1
7892 6128 6129 1
7893 6128 6473 1
7894 6129 6130 1
7895 6130 6131 1
7896 6130 6132 1
7897 6133 6136 1
7898 6133 6134 1
7899 6133 6135 1
7900 6136 6137 1
7901 6137 6171 1
7902 6137 6138 1
7903 6137 6476 1
7904 6139 6148 1
7905 6139 6151 1
7906 6140 6141 1
7907 6140 6144 1
7908 6140 6143 1
7909 6141 6142 1
7910 6142 6161 1
7911 6142 6180 1
7912 6142 6145 1
7913 6145 6146 1
7914 6146 6167 1
7915 6146 6186 1
7916 6146 6147 1
7917 6147 6148 1
7918 6148 6150 1
7919 6148 6149 1
7920 6151 6154 1
7921 6151 6153 1
7922 6151 6152 1
7923 6154 6155 1
7924 6155 6170 1
7925 6155 6189 1
7926 6155 6156 1
7927 6157 6166 1
7928 6157 6169 1
7929 6158 6159 1
7930 6158 6161 1
7931 6158 6162 1
7932 6159 6160 1
7933 6160 6504 1
7934 6160 6485 1
7935 6160 6163 1
7936 6163 6164 1
7937 6164 6165 1
7938 6164 6510 1
7939 6164 6491 1
7940 6165 6166 1
7941 6166 6167 1
7942 6166 6168 1
7943 6169 6172 1
7944 6169 6170 1
7945 6169 6171 1
7946 6172 6173 1
7947 6173 6513 1
7948 6173 6494 1
7949 6173 6174 1
7950 6175 6184 1
7951 6175 6187 1
7952 6176 6177 1
7953 6176 6179 1
7954 6176 6180 1
7955 6177 6178 1
7956 6178 6558 1
7957 6178 6503 1
7958 6178 6181 1
7959 6179 6196 1
7960 6181 6182 1
7961 6182 6183 1
7962 6182 6564 1
7963 6182 6509 1
7964 6183 6184 1
7965 6184 6185 1
7966 6184 6186 1
7967 6185 6200 1
7968 6187 6190 1
7969 6187 6188 1
7970 6187 6189 1
7971 6188 6209 1
7972 6190 6191 1
7973 6191 6567 1
7974 6191 6512 1
7975 6191 6192 1
7976 6193 6202 1
7977 6193 6205 1
7978 6194 6198 1
7979 6194 6195 1
7980 6194 6197 1
7981 6195 6196 1
7982 6196 6199 1
7983 6196 6234 1
7984 6199 6200 1
7985 6200 6240 1
7986 6200 6201 1
7987 6201 6202 1
7988 6202 6204 1
7989 6202 6203 1
7990 6205 6207 1
7991 6205 6208 1
7992 6205 6206 1
7993 6208 6209 1
7994 6209 6210 1
7995 6209 6243 1
7996 6211 6220 1
7997 6211 6223 1
7998 6212 6216 1
7999 6212 6213 1
8000 6212 6215 1
8001 6213 6214 1
8002 6214 6233 1
8003 6214 6217 1
8004 6214 6252 1
8005 6217 6218 1
8006 6218 6239 1
8007 6218 6258 1
8008 6218 6219 1
8009 6219 6220 1
8010 6220 6222 1
8011 6220 6221 1
8012 6223 6225 1
8013 6223 6226 1
8014 6223 6224 1
8015 6226 6227 1
8016 6227 6242 1
8017 6227 6228 1
8018 6227 6261 1
8019 6229 6238 1
8020 6229 6241 1
8021 6230 6234 1
8022 6230 6231 1
8023 6230 6233 1
8024 6231 6232 1
8025 6232 6557 1
8026 6232 6235 1
8027 6232 6576 1
8028 6235 6236 1
8029 6236 6563 1
8030 6236 6237 1
8031 6236 6582 1
8032 6237 6238 1
8033 6238 6240 1
8034 6238 6239 1
8035 6241 6243 1
8036 6241 6244 1
8037 6241 6242 1
8038 6244 6245 1
8039 6245 6566 1
8040 6245 6246 1
8041 6245 6585 1
8042 6247 6256 1
8043 6247 6259 1
8044 6248 6251 1
8045 6248 6252 1
8046 6248 6249 1
8047 6249 6250 1
8048 6250 6575 1
8049 6250 6630 1
8050 6250 6253 1
8051 6251 6268 1
8052 6253 6254 1
8053 6254 6581 1
8054 6254 6636 1
8055 6254 6255 1
8056 6255 6256 1
8057 6256 6257 1
8058 6256 6258 1
8059 6257 6272 1
8060 6259 6260 1
8061 6259 6261 1
8062 6259 6262 1
8063 6260 6281 1
8064 6262 6263 1
8065 6263 6584 1
8066 6263 6639 1
8067 6263 6264 1
8068 6265 6274 1
8069 6265 6277 1
8070 6266 6269 1
8071 6266 6267 1
8072 6266 6270 1
8073 6267 6268 1
8074 6268 6306 1
8075 6268 6271 1
8076 6271 6272 1
8077 6272 6312 1
8078 6272 6273 1
8079 6273 6274 1
8080 6274 6275 1
8081 6274 6276 1
8082 6277 6278 1
8083 6277 6280 1
8084 6277 6279 1
8085 6280 6281 1
8086 6281 6315 1
8087 6281 6282 1
8088 6283 6292 1
8089 6283 6295 1
8090 6284 6287 1
8091 6284 6285 1
8092 6284 6288 1
8093 6285 6286 1
8094 6286 6324 1
8095 6286 6289 1
8096 6286 6305 1
8097 6289 6290 1
8098 6290 6330 1
8099 6290 6311 1
8100 6290 6291 1
8101 6291 6292 1
8102 6292 6293 1
8103 6292 6294 1
8104 6295 6296 1
8105 6295 6298 1
8106 6295 6297 1
8107 6298 6299 1
8108 6299 6333 1
8109 6299 6300 1
8110 6299 6314 1
8111 6301 6310 1
8112 6301 6313 1
8113 6302 6305 1
8114 6302 6303 1
8115 6302 6306 1
8116 6303 6304 1
8117 6304 6648 1
8118 6304 6307 1
8119 6304 6629 1
8120 6307 6308 1
8121 6308 6654 1
8122 6308 6309 1
8123 6308 6635 1
8124 6309 6310 1
8125 6310 6311 1
8126 6310 6312 1
8127 6313 6314 1
8128 6313 6316 1
8129 6313 6315 1
8130 6316 6317 1
8131 6317 6657 1
8132 6317 6318 1
8133 6317 6638 1
8134 6319 6328 1
8135 6319 6331 1
8136 6320 6323 1
8137 6320 6321 1
8138 6320 6324 1
8139 6321 6322 1
8140 6322 6702 1
8141 6322 6325 1
8142 6322 6647 1
8143 6323 6340 1
8144 6325 6326 1
8145 6326 6708 1
8146 6326 6327 1
8147 6326 6653 1
8148 6327 6328 1
8149 6328 6329 1
8150 6328 6330 1
8151 6329 6344 1
8152 6331 6332 1
8153 6331 6334 1
8154 6331 6333 1
8155 6332 6353 1
8156 6334 6335 1
8157 6335 6711 1
8158 6335 6336 1
8159 6335 6656 1
8160 6337 6346 1
8161 6337 6349 1
8162 6338 6341 1
8163 6338 6339 1
8164 6338 6342 1
8165 6339 6340 1
8166 6340 6378 1
8167 6340 6343 1
8168 6343 6344 1
8169 6344 6384 1
8170 6344 6345 1
8171 6345 6346 1
8172 6346 6347 1
8173 6346 6348 1
8174 6349 6350 1
8175 6349 6352 1
8176 6349 6351 1
8177 6352 6353 1
8178 6353 6387 1
8179 6353 6354 1
8180 6355 6364 1
8181 6355 6367 1
8182 6356 6359 1
8183 6356 6357 1
8184 6356 6360 1
8185 6357 6358 1
8186 6358 6396 1
8187 6358 6361 1
8188 6358 6377 1
8189 6361 6362 1
8190 6362 6402 1
8191 6362 6383 1
8192 6362 6363 1
8193 6363 6364 1
8194 6364 6365 1
8195 6364 6366 1
8196 6367 6368 1
8197 6367 6370 1
8198 6367 6369 1
8199 6370 6371 1
8200 6371 6405 1
8201 6371 6372 1
8202 6371 6386 1
8203 6373 6382 1
8204 6373 6385 1
8205 6374 6377 1
8206 6374 6375 1
8207 6374 6378 1
8208 6375 6376 1
8209 6376 6720 1
8210 6376 6379 1
8211 6376 6701 1
8212 6379 6380 1
8213 6380 6726 1
8214 6380 6381 1
8215 6380 6707 1
8216 6381 6382 1
8217 6382 6383 1
8218 6382 6384 1
8219 6385 6386 1
8220 6385 6388 1
8221 6385 6387 1
8222 6388 6389 1
8223 6389 6729 1
8224 6389 6390 1
8225 6389 6710 1
8226 6391 6400 1
8227 6391 6403 1
8228 6392 6396 1
8229 6392 6393 1
8230 6392 6395 1
8231 6393 6394 1
8232 6394 6719 1
8233 6394 6397 1
8234 6394 6774 1
8235 6395 6412 1
8236 6397 6398 1
8237 6398 6725 1
8238 6398 6399 1
8239 6398 6780 1
8240 6399 6400 1
8241 6400 6402 1
8242 6400 6401 1
8243 6401 6416 1
8244 6403 6405 1
8245 6403 6406 1
8246 6403 6404 1
8247 6404 6425 1
8248 6406 6407 1
8249 6407 6728 1
8250 6407 6408 1
8251 6407 6783 1
8252 6409 6418 1
8253 6409 6421 1
8254 6410 6414 1
8255 6410 6411 1
8256 6410 6413 1
8257 6411 6412 1
8258 6412 6415 1
8259 6412 6450 1
8260 6415 6416 1
8261 6416 6456 1
8262 6416 6417 1
8263 6417 6418 1
8264 6418 6420 1
8265 6418 6419 1
8266 6421 6423 1
8267 6421 6424 1
8268 6421 6422 1
8269 6424 6425 1
8270 6425 6426 1
8271 6425 6459 1
8272 6427 6436 1
8273 6427 6439 1
8274 6428 6432 1
8275 6428 6429 1
8276 6428 6431 1
8277 6429 6430 1
8278 6430 6449 1
8279 6430 6433 1
8280 6430 6468 1
8281 6433 6434 1
8282 6434 6455 1
8283 6434 6474 1
8284 6434 6435 1
8285 6435 6436 1
8286 6436 6438 1
8287 6436 6437 1
8288 6439 6441 1
8289 6439 6442 1
8290 6439 6440 1
8291 6442 6443 1
8292 6443 6458 1
8293 6443 6444 1
8294 6443 6477 1
8295 6445 6454 1
8296 6445 6457 1
8297 6446 6450 1
8298 6446 6447 1
8299 6446 6449 1
8300 6447 6448 1
8301 6448 6773 1
8302 6448 6451 1
8303 6448 6792 1
8304 6451 6452 1
8305 6452 6779 1
8306 6452 6453 1
8307 6452 6798 1
8308 6453 6454 1
8309 6454 6456 1
8310 6454 6455 1
8311 6457 6459 1
8312 6457 6460 1
8313 6457 6458 1
8314 6460 6461 1
8315 6461 6782 1
8316 6461 6462 1
8317 6461 6801 1
8318 6463 6472 1
8319 6463 6475 1
8320 6464 6468 1
8321 6464 6465 1
8322 6464 6467 1
8323 6465 6466 1
8324 6466 6791 1
8325 6466 6469 1
8326 6466 6486 1
8327 6469 6470 1
8328 6470 6797 1
8329 6470 6471 1
8330 6470 6492 1
8331 6471 6472 1
8332 6472 6474 1
8333 6472 6473 1
8334 6475 6477 1
8335 6475 6478 1
8336 6475 6476 1
8337 6478 6479 1
8338 6479 6800 1
8339 6479 6480 1
8340 6479 6495 1
8341 6481 6490 1
8342 6481 6493 1
8343 6482 6483 1
8344 6482 6485 1
8345 6482 6486 1
8346 6483 6484 1
8347 6484 6522 1
8348 6484 6487 1
8349 6484 6827 1
8350 6487 6488 1
8351 6488 6528 1
8352 6488 6489 1
8353 6488 6833 1
8354 6489 6490 1
8355 6490 6491 1
8356 6490 6492 1
8357 6493 6496 1
8358 6493 6494 1
8359 6493 6495 1
8360 6496 6497 1
8361 6497 6531 1
8362 6497 6498 1
8363 6497 6836 1
8364 6499 6508 1
8365 6499 6511 1
8366 6500 6501 1
8367 6500 6504 1
8368 6500 6503 1
8369 6501 6502 1
8370 6502 6521 1
8371 6502 6540 1
8372 6502 6505 1
8373 6505 6506 1
8374 6506 6527 1
8375 6506 6546 1
8376 6506 6507 1
8377 6507 6508 1
8378 6508 6510 1
8379 6508 6509 1
8380 6511 6514 1
8381 6511 6513 1
8382 6511 6512 1
8383 6514 6515 1
8384 6515 6530 1
8385 6515 6549 1
8386 6515 6516 1
8387 6517 6526 1
8388 6517 6529 1
8389 6518 6519 1
8390 6518 6521 1
8391 6518 6522 1
8392 6519 6520 1
8393 6520 6864 1
8394 6520 6845 1
8395 6520 6523 1
8396 6523 6524 1
8397 6524 6525 1
8398 6524 6870 1
8399 6524 6851 1
8400 6525 6526 1
8401 6526 6527 1
8402 6526 6528 1
8403 6529 6532 1
8404 6529 6530 1
8405 6529 6531 1
8406 6532 6533 1
8407 6533 6873 1
8408 6533 6854 1
8409 6533 6534 1
8410 6535 6544 1
8411 6535 6547 1
8412 6536 6537 1
8413 6536 6539 1
8414 6536 6540 1
8415 6537 6538 1
8416 6538 6918 1
8417 6538 6863 1
8418 6538 6541 1
8419 6539 6556 1
8420 6541 6542 1
8421 6542 6543 1
8422 6542 6924 1
8423 6542 6869 1
8424 6543 6544 1
8425 6544 6545 1
8426 6544 6546 1
8427 6545 6560 1
8428 6547 6550 1
8429 6547 6548 1
8430 6547 6549 1
8431 6548 6569 1
8432 6550 6551 1
8433 6551 6927 1
8434 6551 6872 1
8435 6551 6552 1
8436 6553 6562 1
8437 6553 6565 1
8438 6554 6558 1
8439 6554 6555 1
8440 6554 6557 1
8441 6555 6556 1
8442 6556 6559 1
8443 6556 6594 1
8444 6559 6560 1
8445 6560 6600 1
8446 6560 6561 1
8447 6561 6562 1
8448 6562 6564 1
8449 6562 6563 1
8450 6565 6567 1
8451 6565 6568 1
8452 6565 6566 1
8453 6568 6569 1
8454 6569 6570 1
8455 6569 6603 1
8456 6571 6580 1
8457 6571 6583 1
8458 6572 6576 1
8459 6572 6573 1
8460 6572 6575 1
8461 6573 6574 1
8462 6574 6593 1
8463 6574 6577 1
8464 6574 6612 1
8465 6577 6578 1
8466 6578 6599 1
8467 6578 6618 1
8468 6578 6579 1
8469 6579 6580 1
8470 6580 6582 1
8471 6580 6581 1
8472 6583 6585 1
8473 6583 6586 1
8474 6583 6584 1
8475 6586 6587 1
8476 6587 6602 1
8477 6587 6588 1
8478 6587 6621 1
8479 6589 6598 1
8480 6589 6601 1
8481 6590 6594 1
8482 6590 6591 1
8483 6590 6593 1
8484 6591 6592 1
8485 6592 6917 1
8486 6592 6595 1
8487 6592 6936 1
8488 6595 6596 1
8489 6596 6923 1
8490 6596 6597 1
8491 6596 6942 1
8492 6597 6598 1
8493 6598 6600 1
8494 6598 6599 1
8495 6601 6603 1
8496 6601 6604 1
8497 6601 6602 1
8498 6604 6605 1
8499 6605 6926 1
8500 6605 6606 1
8501 6605 6945 1
8502 6607 6616 1
8503 6607 6619 1
8504 6608 6611 1
8505 6608 6612 1
8506 6608 6609 1
8507 6609 6610 1
8508 6610 6935 1
8509 6610 6990 1
8510 6610 6613 1
8511 6611 6628 1
8512 6613 6614 1
8513 6614 6941 1
8514 6614 6996 1
8515 6614 6615 1
8516 6615 6616 1
8517 6616 6617 1
8518 6616 6618 1
8519 6617 6632 1
8520 6619 6620 1
8521 6619 6621 1
8522 6619 6622 1
8523 6620 6641 1
8524 6622 6623 1
8525 6623 6944 1
8526 6623 6999 1
8527 6623 6624 1
8528 6625 6634 1
8529 6625 6637 1
8530 6626 6629 1
8531 6626 6627 1
8532 6626 6630 1
8533 6627 6628 1
8534 6628 6666 1
8535 6628 6631 1
8536 6631 6632 1
8537 6632 6672 1
8538 6632 6633 1
8539 6633 6634 1
8540 6634 6635 1
8541 6634 6636 1
8542 6637 6638 1
8543 6637 6640 1
8544 6637 6639 1
8545 6640 6641 1
8546 6641 6675 1
8547 6641 6642 1
8548 6643 6652 1
8549 6643 6655 1
8550 6644 6647 1
8551 6644 6645 1
8552 6644 6648 1
8553 6645 6646 1
8554 6646 6684 1
8555 6646 6649 1
8556 6646 6665 1
8557 6649 6650 1
8558 6650 6690 1
8559 6650 6671 1
8560 6650 6651 1
8561 6651 6652 1
8562 6652 6653 1
8563 6652 6654 1
8564 6655 6656 1
8565 6655 6658 1
8566 6655 6657 1
8567 6658 6659 1
8568 6659 6693 1
8569 6659 6660 1
8570 6659 6674 1
8571 6661 6670 1
8572 6661 6673 1
8573 6662 6665 1
8574 6662 6663 1
8575 6662 6666 1
8576 6663 6664 1
8577 6664 7008 1
8578 6664 6667 1
8579 6664 6989 1
8580 6667 6668 1
8581 6668 7014 1
8582 6668 6669 1
8583 6668 6995 1
8584 6669 6670 1
8585 6670 6671 1
8586 6670 6672 1
8587 6673 6674 1
8588 6673 6676 1
8589 6673 6675 1
8590 6676 6677 1
8591 6677 7017 1
8592 6677 6678 1
8593 6677 6998 1
8594 6679 6688 1
8595 6679 6691 1
8596 6680 6683 1
8597 6680 6681 1
8598 6680 6684 1
8599 6681 6682 1
8600 6682 7062 1
8601 6682 6685 1
8602 6682 7007 1
8603 6683 6700 1
8604 6685 6686 1
8605 6686 7068 1
8606 6686 6687 1
8607 6686 7013 1
8608 6687 6688 1
8609 6688 6689 1
8610 6688 6690 1
8611 6689 6704 1
8612 6691 6692 1
8613 6691 6694 1
8614 6691 6693 1
8615 6692 6713 1
8616 6694 6695 1
8617 6695 7071 1
8618 6695 6696 1
8619 6695 7016 1
8620 6697 6706 1
8621 6697 6709 1
8622 6698 6701 1
8623 6698 6699 1
8624 6698 6702 1
8625 6699 6700 1
8626 6700 6738 1
8627 6700 6703 1
8628 6703 6704 1
8629 6704 6744 1
8630 6704 6705 1
8631 6705 6706 1
8632 6706 6707 1
8633 6706 6708 1
8634 6709 6710 1
8635 6709 6712 1
8636 6709 6711 1
8637 6712 6713 1
8638 6713 6747 1
8639 6713 6714 1
8640 6715 6724 1
8641 6715 6727 1
8642 6716 6719 1
8643 6716 6717 1
8644 6716 6720 1
8645 6717 6718 1
8646 6718 6756 1
8647 6718 6721 1
8648 6718 6737 1
8649 6721 6722 1
8650 6722 6762 1
8651 6722 6743 1
8652 6722 6723 1
8653 6723 6724 1
8654 6724 6725 1
8655 6724 6726 1
8656 6727 6728 1
8657 6727 6730 1
8658 6727 6729 1
8659 6730 6731 1
8660 6731 6765 1
8661 6731 6732 1
8662 6731 6746 1
8663 6733 6742 1
8664 6733 6745 1
8665 6734 6737 1
8666 6734 6735 1
8667 6734 6738 1
8668 6735 6736 1
8669 6736 7080 1
8670 6736 6739 1
8671 6736 7061 1
8672 6739 6740 1
8673 6740 7086 1
8674 6740 6741 1
8675 6740 7067 1
8676 6741 6742 1
8677 6742 6743 1
8678 6742 6744 1
8679 6745 6746 1
8680 6745 6748 1
8681 6745 6747 1
8682 6748 6749 1
8683 6749 7089 1
8684 6749 6750 1
8685 6749 7070 1
8686 6751 6760 1
8687 6751 6763 1
8688 6752 6756 1
8689 6752 6753 1
8690 6752 6755 1
8691 6753 6754 1
8692 6754 7079 1
8693 6754 6757 1
8694 6754 7134 1
8695 6755 6772 1
8696 6757 6758 1
8697 6758 7085 1
8698 6758 6759 1
8699 6758 7140 1
8700 6759 6760 1
8701 6760 6762 1
8702 6760 6761 1
8703 6761 6776 1
8704 6763 6765 1
8705 6763 6766 1
8706 6763 6764 1
8707 6764 6785 1
8708 6766 6767 1
8709 6767 7088 1
8710 6767 6768 1
8711 6767 7143 1
8712 6769 6778 1
8713 6769 6781 1
8714 6770 6774 1
8715 6770 6771 1
8716 6770 6773 1
8717 6771 6772 1
8718 6772 6775 1
8719 6772 6810 1
8720 6775 6776 1
8721 6776 6816 1
8722 6776 6777 1
8723 6777 6778 1
8724 6778 6780 1
8725 6778 6779 1
8726 6781 6783 1
8727 6781 6784 1
8728 6781 6782 1
8729 6784 6785 1
8730 6785 6786 1
8731 6785 6819 1
8732 6787 6796 1
8733 6787 6799 1
8734 6788 6792 1
8735 6788 6789 1
8736 6788 6791 1
8737 6789 6790 1
8738 6790 6809 1
8739 6790 6793 1
8740 6790 6828 1
8741 6793 6794 1
8742 6794 6815 1
8743 6794 6834 1
8744 6794 6795 1
8745 6795 6796 1
8746 6796 6798 1
8747 6796 6797 1
8748 6799 6801 1
8749 6799 6802 1
8750 6799 6800 1
8751 6802 6803 1
8752 6803 6818 1
8753 6803 6804 1
8754 6803 6837 1
8755 6805 6814 1
8756 6805 6817 1
8757 6806 6810 1
8758 6806 6807 1
8759 6806 6809 1
8760 6807 6808 1
8761 6808 7133 1
8762 6808 6811 1
8763 6808 7152 1
8764 6811 6812 1
8765 6812 7139 1
8766 6812 6813 1
8767 6812 7158 1
8768 6813 6814 1
8769 6814 6816 1
8770 6814 6815 1
8771 6817 6819 1
8772 6817 6820 1
8773 6817 6818 1
8774 6820 6821 1
8775 6821 7142 1
8776 6821 6822 1
8777 6821 7161 1
8778 6823 6832 1
8779 6823 6835 1
8780 6824 6828 1
8781 6824 6825 1
8782 6824 6827 1
8783 6825 6826 1
8784 6826 7151 1
8785 6826 6829 1
8786 6826 6846 1
8787 6829 6830 1
8788 6830 7157 1
8789 6830 6831 1
8790 6830 6852 1
8791 6831 6832 1
8792 6832 6834 1
8793 6832 6833 1
8794 6835 6837 1
8795 6835 6838 1
8796 6835 6836 1
8797 6838 6839 1
8798 6839 7160 1
8799 6839 6840 1
8800 6839 6855 1
8801 6841 6850 1
8802 6841 6853 1
8803 6842 6845 1
8804 6842 6846 1
8805 6842 6843 1
8806 6843 6844 1
8807 6844 6882 1
8808 6844 6847 1
8809 6844 7187 1
8810 6847 6848 1
8811 6848 6849 1
8812 6848 6888 1
8813 6848 7193 1
8814 6849 6850 1
8815 6850 6851 1
8816 6850 6852 1
8817 6853 6854 1
8818 6853 6855 1
8819 6853 6856 1
8820 6856 6857 1
8821 6857 6891 1
8822 6857 6858 1
8823 6857 7196 1
8824 6859 6868 1
8825 6859 6871 1
8826 6860 6864 1
8827 6860 6863 1
8828 6860 6861 1
8829 6861 6862 1
8830 6862 6881 1
8831 6862 6900 1
8832 6862 6865 1
8833 6865 6866 1
8834 6866 6867 1
8835 6866 6887 1
8836 6866 6906 1
8837 6867 6868 1
8838 6868 6870 1
8839 6868 6869 1
8840 6871 6873 1
8841 6871 6872 1
8842 6871 6874 1
8843 6874 6875 1
8844 6875 6890 1
8845 6875 6909 1
8846 6875 6876 1
8847 6877 6886 1
8848 6877 6889 1
8849 6878 6879 1
8850 6878 6881 1
8851 6878 6882 1
8852 6879 6880 1
8853 6880 6883 1
8854 6883 6884 1
8855 6884 6885 1
8856 6885 6886 1
8857 6886 6887 1
8858 6886 6888 1
8859 6889 6892 1
8860 6889 6890 1
8861 6889 6891 1
8862 6892 6893 1
8863 6893 6894 1
8864 6895 6904 1
8865 6895 6907 1
8866 6896 6897 1
8867 6896 6899 1
8868 6896 6900 1
8869 6897 6898 1
8870 6898 6901 1
8871 6899 6916 1
8872 6901 6902 1
8873 6902 6903 1
8874 6903 6904 1
8875 6904 6905 1
8876 6904 6906 1
8877 6905 6920 1
8878 6907 6910 1
8879 6907 6908 1
8880 6907 6909 1
8881 6908 6929 1
8882 6910 6911 1
8883 6911 6912 1
8884 6913 6922 1
8885 6913 6925 1
8886 6914 6918 1
8887 6914 6917 1
8888 6914 6915 1
8889 6915 6916 1
8890 6916 6919 1
8891 6916 6954 1
8892 6919 6920 1
8893 6920 6921 1
8894 6920 6960 1
8895 6921 6922 1
8896 6922 6924 1
8897 6922 6923 1
8898 6925 6927 1
8899 6925 6926 1
8900 6925 6928 1
8901 6928 6929 1
8902 6929 6930 1
8903 6929 6963 1
8904 6931 6940 1
8905 6931 6943 1
8906 6932 6936 1
8907 6932 6935 1
8908 6932 6933 1
8909 6933 6934 1
8910 6934 6953 1
8911 6934 6937 1
8912 6934 6972 1
8913 6937 6938 1
8914 6938 6959 1
8915 6938 6939 1
8916 6938 6978 1
8917 6939 6940 1
8918 6940 6942 1
8919 6940 6941 1
8920 6943 6945 1
8921 6943 6944 1
8922 6943 6946 1
8923 6946 6947 1
8924 6947 6962 1
8925 6947 6948 1
8926 6947 6981 1
8927 6949 6958 1
8928 6949 6961 1
8929 6950 6954 1
8930 6950 6951 1
8931 6950 6953 1
8932 6951 6952 1
8933 6952 6955 1
8934 6955 6956 1
8935 6956 6957 1
8936 6957 6958 1
8937 6958 6960 1
8938 6958 6959 1
8939 6961 6963 1
8940 6961 6964 1
8941 6961 6962 1
8942 6964 6965 1
8943 6965 6966 1
8944 6967 6976 1
8945 6967 6979 1
8946 6968 6971 1
8947 6968 6972 1
8948 6968 6969 1
8949 6969 6970 1
8950 6970 6973 1
8951 6971 6988 1
8952 6973 6974 1
8953 6974 6975 1
8954 6975 6976 1
8955 6976 6977 1
8956 6976 6978 1
8957 6977 6992 1
8958 6979 6980 1
8959 6979 6981 1
8960 6979 6982 1
8961 6980 7001 1
8962 6982 6983 1
8963 6983 6984 1
8964 6985 6994 1
8965 6985 6997 1
8966 6986 6989 1
8967 6986 6990 1
8968 6986 6987 1
8969 6987 6988 1
8970 6988 7026 1
8971 6988 6991 1
8972 6991 6992 1
8973 6992 7032 1
8974 6992 6993 1
8975 6993 6994 1
8976 6994 6995 1
8977 6994 6996 1
8978 6997 6998 1
8979 6997 6999 1
8980 6997 7000 1
8981 7000 7001 1
8982 7001 7035 1
8983 7001 7002 1
8984 7003 7012 1
8985 7003 7015 1
8986 7004 7007 1
8987 7004 7008 1
8988 7004 7005 1
8989 7005 7006 1
8990 7006 7044 1
8991 7006 7009 1
8992 7006 7025 1
8993 7009 7010 1
8994 7010 7050 1
8995 7010 7011 1
8996 7010 7031 1
8997 7011 7012 1
8998 7012 7013 1
8999 7012 7014 1
9000 7015 7016 1
9001 7015 7017 1
9002 7015 7018 1
9003 7018 7019 1
9004 7019 7053 1
9005 7019 7020 1
9006 7019 7034 1
9007 7021 7030 1
9008 7021 7033 1
9009 7022 7025 1
9010 7022 7023 1
9011 7022 7026 1
9012 7023 7024 1
9013 7024 7027 1
9014 7027 7028 1
9015 7028 7029 1
9016 7029 7030 1
9017 7030 7031 1
9018 7030 7032 1
9019 7033 7034 1
9020 7033 7036 1
9021 7033 7035 1
9022 7036 7037 1
9023 7037 7038 1
9024 7039 7048 1
9025 7039 7051 1
9026 7040 7043 1
9027 7040 7041 1
9028 7040 7044 1
9029 7041 7042 1
9030 7042 7045 1
9031 7043 7060 1
9032 7045 7046 1
9033 7046 7047 1
9034 7047 7048 1
9035 7048 7049 1
9036 7048 7050 1
9037 7049 7064 1
9038 7051 7052 1
9039 7051 7054 1
9040 7051 7053 1
9041 7052 7073 1
9042 7054 7055 1
9043 7055 7056 1
9044 7057 7066 1
9045 7057 7069 1
9046 7058 7061 1
9047 7058 7062 1
9048 7058 7059 1
9049 7059 7060 1
9050 7060 7098 1
9051 7060 7063 1
9052 7063 7064 1
9053 7064 7104 1
9054 7064 7065 1
9055 7065 7066 1
9056 7066 7067 1
9057 7066 7068 1
9058 7069 7070 1
9059 7069 7071 1
9060 7069 7072 1
9061 7072 7073 1
9062 7073 7107 1
9063 7073 7074 1
9064 7075 7084 1
9065 7075 7087 1
9066 7076 7079 1
9067 7076 7080 1
9068 7076 7077 1
9069 7077 7078 1
9070 7078 7116 1
9071 7078 7081 1
9072 7078 7097 1
9073 7081 7082 1
9074 7082 7122 1
9075 7082 7083 1
9076 7082 7103 1
9077 7083 7084 1
9078 7084 7085 1
9079 7084 7086 1
9080 7087 7088 1
9081 7087 7089 1
9082 7087 7090 1
9083 7090 7091 1
9084 7091 7125 1
9085 7091 7092 1
9086 7091 7106 1
9087 7093 7102 1
9088 7093 7105 1
9089 7094 7097 1
9090 7094 7095 1
9091 7094 7098 1
9092 7095 7096 1
9093 7096 7099 1
9094 7099 7100 1
9095 7100 7101 1
9096 7101 7102 1
9097 7102 7103 1
9098 7102 7104 1
9099 7105 7106 1
9100 7105 7108 1
9101 7105 7107 1
9102 7108 7109 1
9103 7109 7110 1
9104 7111 7120 1
9105 7111 7123 1
9106 7112 7116 1
9107 7112 7113 1
9108 7112 7115 1
9109 7113 7114 1
9110 7114 7117 1
9111 7115 7132 1
9112 7117 7118 1
9113 7118 7119 1
9114 7119 7120 1
9115 7120 7122 1
9116 7120 7121 1
9117 7121 7136 1
9118 7123 7125 1
9119 7123 7126 1
9120 7123 7124 1
9121 7124 7145 1
9122 7126 7127 1
9123 7127 7128 1
9124 7129 7138 1
9125 7129 7141 1
9126 7130 7134 1
9127 7130 7133 1
9128 7130 7131 1
9129 7131 7132 1
9130 7132 7135 1
9131 7132 7170 1
9132 7135 7136 1
9133 7136 7137 1
9134 7136 7176 1
9135 7137 7138 1
9136 7138 7140 1
9137 7138 7139 1
9138 7141 7143 1
9139 7141 7142 1
9140 7141 7144 1
9141 7144 7145 1
9142 7145 7146 1
9143 7145 7179 1
9144 7147 7156 1
9145 7147 7159 1
9146 7148 7152 1
9147 7148 7151 1
9148 7148 7149 1
9149 7149 7150 1
9150 7150 7169 1
9151 7150 7153 1
9152 7150 7188 1
9153 7153 7154 1
9154 7154 7175 1
9155 7154 7155 1
9156 7154 7194 1
9157 7155 7156 1
9158 7156 7158 1
9159 7156 7157 1
9160 7159 7161 1
9161 7159 7160 1
9162 7159 7162 1
9163 7162 7163 1
9164 7163 7178 1
9165 7163 7164 1
9166 7163 7197 1
9167 7165 7174 1
9168 7165 7177 1
9169 7166 7170 1
9170 7166 7167 1
9171 7166 7169 1
9172 7167 7168 1
9173 7168 7171 1
9174 7171 7172 1
9175 7172 7173 1
9176 7173 7174 1
9177 7174 7176 1
9178 7174 7175 1
9179 7177 7179 1
9180 7177 7180 1
9181 7177 7178 1
9182 7180 7181 1
9183 7181 7182 1
9184 7183 7192 1
9185 7183 7195 1
9186 7184 7188 1
9187 7184 7185 1
9188 7184 7187 1
9189 7185 7186 1
9190 7186 7189 1
9191 7189 7190 1
9192 7190 7191 1
9193 7191 7192 1
9194 7192 7194 1
9195 7192 7193 1
9196 7195 7197 1
9197 7195 7198 1
9198 7195 7196 1
9199 7198 7199 1
9200 7199 7200 1
9201 7201 7210 1
9202 7201 7213 1
9203 7202 7205 1
9204 7202 7206 1
9205 7202 7203 1
9206 7203 7204 1
9207 7204 7242 1
9208 7204 7207 1
9209 7204 7547 1
9210 7205 8680 1
9211 7206 8986 1
9212 7207 7208 1
9213 7208 7209 1
9214 7208 7248 1
9215 7208 7553 1
9216 7209 7210 1
9217 7210 7211 1
9218 7210 7212 1
9219 7211 8684 1
9220 7212 8990 1
9221 7213 7214 1
9222 7213 7215 1
9223 7213 7216 1
9224 7214 8693 1
9225 7215 8999 1
9226 7216 7217 1
9227 7217 7251 1
9228 7217 7218 1
9229 7217 7556 1
9230 7219 7228 1
9231 7219 7231 1
9232 7220 7224 1
9233 7220 7223 1
9234 7220 7221 1
9235 7221 7222 1
9236 7222 7241 1
9237 7222 7225 1
9238 7222 7260 1
9239 7223 8698 1
9240 7224 8680 1
9241 7225 7226 1
9242 7226 7227 1
9243 7226 7247 1
9244 7226 7266 1
9245 7227 7228 1
9246 7228 7230 1
9247 7228 7229 1
9248 7229 8702 1
9249 7230 8684 1
9250 7231 7233 1
9251 7231 7232 1
9252 7231 7234 1
9253 7232 8711 1
9254 7233 8693 1
9255 7234 7235 1
9256 7235 7250 1
9257 7235 7269 1
9258 7235 7236 1
9259 7237 7246 1
9260 7237 7249 1
9261 7238 7239 1
9262 7238 7241 1
9263 7238 7242 1
9264 7239 7240 1
9265 7240 7243 1
9266 7240 7584 1
9267 7240 7565 1
9268 7243 7244 1
9269 7244 7245 1
9270 7244 7590 1
9271 7244 7571 1
9272 7245 7246 1
9273 7246 7247 1
9274 7246 7248 1
9275 7249 7252 1
9276 7249 7250 1
9277 7249 7251 1
9278 7252 7253 1
9279 7253 7593 1
9280 7253 7574 1
9281 7253 7254 1
9282 7255 7264 1
9283 7255 7267 1
9284 7256 7259 1
9285 7256 7257 1
9286 7256 7260 1
9287 7257 7258 1
9288 7258 7638 1
9289 7258 7261 1
9290 7258 7583 1
9291 7259 7276 1
9292 7261 7262 1
9293 7262 7644 1
9294 7262 7263 1
9295 7262 7589 1
9296 7263 7264 1
9297 7264 7265 1
9298 7264 7266 1
9299 7265 7280 1
9300 7267 7268 1
9301 7267 7270 1
9302 7267 7269 1
9303 7268 7289 1
9304 7270 7271 1
9305 7271 7647 1
9306 7271 7592 1
9307 7271 7272 1
9308 7273 7282 1
9309 7273 7285 1
9310 7274 7278 1
9311 7274 7275 1
9312 7274 7277 1
9313 7275 7276 1
9314 7276 7279 1
9315 7276 7314 1
9316 7277 8752 1
9317 7278 8698 1
9318 7279 7280 1
9319 7280 7281 1
9320 7280 7320 1
9321 7281 7282 1
9322 7282 7284 1
9323 7282 7283 1
9324 7283 8756 1
9325 7284 8702 1
9326 7285 7287 1
9327 7285 7288 1
9328 7285 7286 1
9329 7286 8765 1
9330 7287 8711 1
9331 7288 7289 1
9332 7289 7290 1
9333 7289 7323 1
9334 7291 7300 1
9335 7291 7303 1
9336 7292 7296 1
9337 7292 7293 1
9338 7292 7295 1
9339 7293 7294 1
9340 7294 7313 1
9341 7294 7297 1
9342 7294 7332 1
9343 7295 8770 1
9344 7296 8752 1
9345 7297 7298 1
9346 7298 7319 1
9347 7298 7299 1
9348 7298 7338 1
9349 7299 7300 1
9350 7300 7302 1
9351 7300 7301 1
9352 7301 8774 1
9353 7302 8756 1
9354 7303 7305 1
9355 7303 7306 1
9356 7303 7304 1
9357 7304 8783 1
9358 7305 8765 1
9359 7306 7307 1
9360 7307 7322 1
9361 7307 7308 1
9362 7307 7341 1
9363 7309 7318 1
9364 7309 7321 1
9365 7310 7314 1
9366 7310 7311 1
9367 7310 7313 1
9368 7311 7312 1
9369 7312 7637 1
9370 7312 7315 1
9371 7312 7656 1
9372 7315 7316 1
9373 7316 7643 1
9374 7316 7317 1
9375 7316 7662 1
9376 7317 7318 1
9377 7318 7320 1
9378 7318 7319 1
9379 7321 7323 1
9380 7321 7324 1
9381 7321 7322 1
9382 7324 7325 1
9383 7325 7646 1
9384 7325 7326 1
9385 7325 7665 1
9386 7327 7336 1
9387 7327 7339 1
9388 7328 7331 1
9389 7328 7332 1
9390 7328 7329 1
9391 7329 7330 1
9392 7330 7655 1
9393 7330 7710 1
9394 7330 7333 1
9395 7331 7348 1
9396 7333 7334 1
9397 7334 7661 1
9398 7334 7716 1
9399 7334 7335 1
9400 7335 7336 1
9401 7336 7337 1
9402 7336 7338 1
9403 7337 7352 1
9404 7339 7340 1
9405 7339 7341 1
9406 7339 7342 1
9407 7340 7361 1
9408 7342 7343 1
9409 7343 7664 1
9410 7343 7719 1
9411 7343 7344 1
9412 7345 7354 1
9413 7345 7357 1
9414 7346 7349 1
9415 7346 7347 1
9416 7346 7350 1
9417 7347 7348 1
9418 7348 7386 1
9419 7348 7351 1
9420 7349 8824 1
9421 7350 8770 1
9422 7351 7352 1
9423 7352 7392 1
9424 7352 7353 1
9425 7353 7354 1
9426 7354 7355 1
9427 7354 7356 1
9428 7355 8828 1
9429 7356 8774 1
9430 7357 7358 1
9431 7357 7360 1
9432 7357 7359 1
9433 7358 8837 1
9434 7359 8783 1
9435 7360 7361 1
9436 7361 7395 1
9437 7361 7362 1
9438 7363 7372 1
9439 7363 7375 1
9440 7364 7367 1
9441 7364 7365 1
9442 7364 7368 1
9443 7365 7366 1
9444 7366 7404 1
9445 7366 7369 1
9446 7366 7385 1
9447 7367 8842 1
9448 7368 8824 1
9449 7369 7370 1
9450 7370 7410 1
9451 7370 7371 1
9452 7370 7391 1
9453 7371 7372 1
9454 7372 7373 1
9455 7372 7374 1
9456 7373 8846 1
9457 7374 8828 1
9458 7375 7376 1
9459 7375 7378 1
9460 7375 7377 1
9461 7376 8855 1
9462 7377 8837 1
9463 7378 7379 1
9464 7379 7413 1
9465 7379 7380 1
9466 7379 7394 1
9467 7381 7390 1
9468 7381 7393 1
9469 7382 7385 1
9470 7382 7383 1
9471 7382 7386 1
9472 7383 7384 1
9473 7384 7728 1
9474 7384 7387 1
9475 7384 7709 1
9476 7387 7388 1
9477 7388 7734 1
9478 7388 7389 1
9479 7388 7715 1
9480 7389 7390 1
9481 7390 7391 1
9482 7390 7392 1
9483 7393 7394 1
9484 7393 7396 1
9485 7393 7395 1
9486 7396 7397 1
9487 7397 7737 1
9488 7397 7398 1
9489 7397 7718 1
9490 7399 7408 1
9491 7399 7411 1
9492 7400 7403 1
9493 7400 7401 1
9494 7400 7404 1
9495 7401 7402 1
9496 7402 7782 1
9497 7402 7405 1
9498 7402 7727 1
9499 7403 7420 1
9500 7405 7406 1
9501 7406 7788 1
9502 7406 7407 1
9503 7406 7733 1
9504 7407 7408 1
9505 7408 7409 1
9506 7408 7410 1
9507 7409 7424 1
9508 7411 7412 1
9509 7411 7414 1
9510 7411 7413 1
9511 7412 7433 1
9512 7414 7415 1
9513 7415 7791 1
9514 7415 7416 1
9515 7415 7736 1
9516 7417 7426 1
9517 7417 7429 1
9518 7418 7421 1
9519 7418 7419 1
9520 7418 7422 1
9521 7419 7420 1
9522 7420 7458 1
9523 7420 7423 1
9524 7421 8896 1
9525 7422 8842 1
9526 7423 7424 1
9527 7424 7464 1
9528 7424 7425 1
9529 7425 7426 1
9530 7426 7427 1
9531 7426 7428 1
9532 7427 8900 1
9533 7428 8846 1
9534 7429 7430 1
9535 7429 7432 1
9536 7429 7431 1
9537 7430 8909 1
9538 7431 8855 1
9539 7432 7433 1
9540 7433 7467 1
9541 7433 7434 1
9542 7435 7444 1
9543 7435 7447 1
9544 7436 7439 1
9545 7436 7437 1
9546 7436 7440 1
9547 7437 7438 1
9548 7438 7476 1
9549 7438 7441 1
9550 7438 7457 1
9551 7439 8914 1
9552 7440 8896 1
9553 7441 7442 1
9554 7442 7482 1
9555 7442 7443 1
9556 7442 7463 1
9557 7443 7444 1
9558 7444 7445 1
9559 7444 7446 1
9560 7445 8918 1
9561 7446 8900 1
9562 7447 7448 1
9563 7447 7450 1
9564 7447 7449 1
9565 7448 8927 1
9566 7449 8909 1
9567 7450 7451 1
9568 7451 7485 1
9569 7451 7452 1
9570 7451 7466 1
9571 7453 7462 1
9572 7453 7465 1
9573 7454 7457 1
9574 7454 7455 1
9575 7454 7458 1
9576 7455 7456 1
9577 7456 7800 1
9578 7456 7459 1
9579 7456 7781 1
9580 7459 7460 1
9581 7460 7806 1
9582 7460 7461 1
9583 7460 7787 1
9584 7461 7462 1
9585 7462 7463 1
9586 7462 7464 1
9587 7465 7466 1
9588 7465 7468 1
9589 7465 7467 1
9590 7468 7469 1
9591 7469 7809 1
9592 7469 7470 1
9593 7469 7790 1
9594 7471 7480 1
9595 7471 7483 1
9596 7472 7476 1
9597 7472 7473 1
9598 7472 7475 1
9599 7473 7474 1
9600 7474 7799 1
9601 7474 7477 1
9602 7474 7854 1
9603 7475 7492 1
9604 7477 7478 1
9605 7478 7805 1
9606 7478 7479 1
9607 7478 7860 1
9608 7479 7480 1
9609 7480 7482 1
9610 7480 7481 1
9611 7481 7496 1
9612 7483 7485 1
9613 7483 7486 1
9614 7483 7484 1
9615 7484 7505 1
9616 7486 7487 1
9617 7487 7808 1
9618 7487 7488 1
9619 7487 7863 1
9620 7489 7498 1
9621 7489 7501 1
9622 7490 7494 1
9623 7490 7491 1
9624 7490 7493 1
9625 7491 7492 1
9626 7492 7495 1
9627 7492 7530 1
9628 7493 8968 1
9629 7494 8914 1
9630 7495 7496 1
9631 7496 7497 1
9632 7496 7536 1
9633 7497 7498 1
9634 7498 7500 1
9635 7498 7499 1
9636 7499 8972 1
9637 7500 8918 1
9638 7501 7503 1
9639 7501 7504 1
9640 7501 7502 1
9641 7502 8981 1
9642 7503 8927 1
9643 7504 7505 1
9644 7505 7506 1
9645 7505 7539 1
9646 7507 7516 1
9647 7507 7519 1
9648 7508 7512 1
9649 7508 7509 1
9650 7508 7511 1
9651 7509 7510 1
9652 7510 7529 1
9653 7510 7513 1
9654 7510 7548 1
9655 7511 8986 1
9656 7512 8968 1
9657 7513 7514 1
9658 7514 7535 1
9659 7514 7515 1
9660 7514 7554 1
9661 7515 7516 1
9662 7516 7518 1
9663 7516 7517 1
9664 7517 8990 1
9665 7518 8972 1
9666 7519 7521 1
9667 7519 7522 1
9668 7519 7520 1
9669 7520 8999 1
9670 7521 8981 1
9671 7522 7523 1
9672 7523 7538 1
9673 7523 7524 1
9674 7523 7557 1
9675 7525 7534 1
9676 7525 7537 1
9677 7526 7530 1
9678 7526 7527 1
9679 7526 7529 1
9680 7527 7528 1
9681 7528 7853 1
9682 7528 7531 1
9683 7528 7872 1
9684 7531 7532 1
9685 7532 7859 1
9686 7532 7533 1
9687 7532 7878 1
9688 7533 7534 1
9689 7534 7536 1
9690 7534 7535 1
9691 7537 7539 1
9692 7537 7540 1
9693 7537 7538 1
9694 7540 7541 1
9695 7541 7862 1
9696 7541 7542 1
9697 7541 7881 1
9698 7543 7552 1
9699 7543 7555 1
9700 7544 7548 1
9701 7544 7545 1
9702 7544 7547 1
9703 7545 7546 1
9704 7546 7871 1
9705 7546 7549 1
9706 7546 7566 1
9707 7549 7550 1
9708 7550 7877 1
9709 7550 7551 1
9710 7550 7572 1
9711 7551 7552 1
9712 7552 7554 1
9713 7552 7553 1
9714 7555 7557 1
9715 7555 7558 1
9716 7555 7556 1
9717 7558 7559 1
9718 7559 7880 1
9719 7559 7560 1
9720 7559 7575 1
9721 7561 7570 1
9722 7561 7573 1
9723 7562 7563 1
9724 7562 7565 1
9725 7562 7566 1
9726 7563 7564 1
9727 7564 7602 1
9728 7564 7567 1
9729 7564 7907 1
9730 7567 7568 1
9731 7568 7608 1
9732 7568 7569 1
9733 7568 7913 1
9734 7569 7570 1
9735 7570 7571 1
9736 7570 7572 1
9737 7573 7576 1
9738 7573 7574 1
9739 7573 7575 1
9740 7576 7577 1
9741 7577 7611 1
9742 7577 7578 1
9743 7577 7916 1
9744 7579 7588 1
9745 7579 7591 1
9746 7580 7581 1
9747 7580 7584 1
9748 7580 7583 1
9749 7581 7582 1
9750 7582 7601 1
9751 7582 7620 1
9752 7582 7585 1
9753 7585 7586 1
9754 7586 7607 1
9755 7586 7626 1
9756 7586 7587 1
9757 7587 7588 1
9758 7588 7590 1
9759 7588 7589 1
9760 7591 7594 1
9761 7591 7593 1
9762 7591 7592 1
9763 7594 7595 1
9764 7595 7610 1
9765 7595 7629 1
9766 7595 7596 1
9767 7597 7606 1
9768 7597 7609 1
9769 7598 7599 1
9770 7598 7601 1
9771 7598 7602 1
9772 7599 7600 1
9773 7600 7944 1
9774 7600 7925 1
9775 7600 7603 1
9776 7603 7604 1
9777 7604 7605 1
9778 7604 7950 1
9779 7604 7931 1
9780 7605 7606 1
9781 7606 7607 1
9782 7606 7608 1
9783 7609 7612 1
9784 7609 7610 1
9785 7609 7611 1
9786 7612 7613 1
9787 7613 7953 1
9788 7613 7934 1
9789 7613 7614 1
9790 7615 7624 1
9791 7615 7627 1
9792 7616 7617 1
9793 7616 7619 1
9794 7616 7620 1
9795 7617 7618 1
9796 7618 7998 1
9797 7618 7943 1
9798 7618 7621 1
9799 7619 7636 1
9800 7621 7622 1
9801 7622 7623 1
9802 7622 8004 1
9803 7622 7949 1
9804 7623 7624 1
9805 7624 7625 1
9806 7624 7626 1
9807 7625 7640 1
9808 7627 7630 1
9809 7627 7628 1
9810 7627 7629 1
9811 7628 7649 1
9812 7630 7631 1
9813 7631 8007 1
9814 7631 7952 1
9815 7631 7632 1
9816 7633 7642 1
9817 7633 7645 1
9818 7634 7635 1
9819 7634 7638 1
9820 7634 7637 1
9821 7635 7636 1
9822 7636 7639 1
9823 7636 7674 1
9824 7639 7640 1
9825 7640 7680 1
9826 7640 7641 1
9827 7641 7642 1
9828 7642 7644 1
9829 7642 7643 1
9830 7645 7648 1
9831 7645 7647 1
9832 7645 7646 1
9833 7648 7649 1
9834 7649 7650 1
9835 7649 7683 1
9836 7651 7660 1
9837 7651 7663 1
9838 7652 7656 1
9839 7652 7653 1
9840 7652 7655 1
9841 7653 7654 1
9842 7654 7673 1
9843 7654 7657 1
9844 7654 7692 1
9845 7657 7658 1
9846 7658 7679 1
9847 7658 7698 1
9848 7658 7659 1
9849 7659 7660 1
9850 7660 7662 1
9851 7660 7661 1
9852 7663 7665 1
9853 7663 7666 1
9854 7663 7664 1
9855 7666 7667 1
9856 7667 7682 1
9857 7667 7668 1
9858 7667 7701 1
9859 7669 7678 1
9860 7669 7681 1
9861 7670 7674 1
9862 7670 7671 1
9863 7670 7673 1
9864 7671 7672 1
9865 7672 7997 1
9866 7672 7675 1
9867 7672 8016 1
9868 7675 7676 1
9869 7676 8003 1
9870 7676 7677 1
9871 7676 8022 1
9872 7677 7678 1
9873 7678 7680 1
9874 7678 7679 1
9875 7681 7683 1
9876 7681 7684 1
9877 7681 7682 1
9878 7684 7685 1
9879 7685 8006 1
9880 7685 7686 1
9881 7685 8025 1
9882 7687 7696 1
9883 7687 7699 1
9884 7688 7691 1
9885 7688 7692 1
9886 7688 7689 1
9887 7689 7690 1
9888 7690 8015 1
9889 7690 8070 1
9890 7690 7693 1
9891 7691 7708 1
9892 7693 7694 1
9893 7694 8021 1
9894 7694 8076 1
9895 7694 7695 1
9896 7695 7696 1
9897 7696 7697 1
9898 7696 7698 1
9899 7697 7712 1
9900 7699 7700 1
9901 7699 7701 1
9902 7699 7702 1
9903 7700 7721 1
9904 7702 7703 1
9905 7703 8024 1
9906 7703 8079 1
9907 7703 7704 1
9908 7705 7714 1
9909 7705 7717 1
9910 7706 7709 1
9911 7706 7707 1
9912 7706 7710 1
9913 7707 7708 1
9914 7708 7746 1
9915 7708 7711 1
9916 7711 7712 1
9917 7712 7752 1
9918 7712 7713 1
9919 7713 7714 1
9920 7714 7715 1
9921 7714 7716 1
9922 7717 7718 1
9923 7717 7720 1
9924 7717 7719 1
9925 7720 7721 1
9926 7721 7755 1
9927 7721 7722 1
9928 7723 7732 1
9929 7723 7735 1
9930 7724 7727 1
9931 7724 7725 1
9932 7724 7728 1
9933 7725 7726 1
9934 7726 7764 1
9935 7726 7729 1
9936 7726 7745 1
9937 7729 7730 1
9938 7730 7770 1
9939 7730 7751 1
9940 7730 7731 1
9941 7731 7732 1
9942 7732 7733 1
9943 7732 7734 1
9944 7735 7736 1
9945 7735 7738 1
9946 7735 7737 1
9947 7738 7739 1
9948 7739 7773 1
9949 7739 7740 1
9950 7739 7754 1
9951 7741 7750 1
9952 7741 7753 1
9953 7742 7745 1
9954 7742 7743 1
9955 7742 7746 1
9956 7743 7744 1
9957 7744 8088 1
9958 7744 7747 1
9959 7744 8069 1
9960 7747 7748 1
9961 7748 8094 1
9962 7748 7749 1
9963 7748 8075 1
9964 7749 7750 1
9965 7750 7751 1
9966 7750 7752 1
9967 7753 7754 1
9968 7753 7756 1
9969 7753 7755 1
9970 7756 7757 1
9971 7757 8097 1
9972 7757 7758 1
9973 7757 8078 1
9974 7759 7768 1
9975 7759 7771 1
9976 7760 7763 1
9977 7760 7761 1
9978 7760 7764 1
9979 7761 7762 1
9980 7762 8142 1
9981 7762 7765 1
9982 7762 8087 1
9983 7763 7780 1
9984 7765 7766 1
9985 7766 8148 1
9986 7766 7767 1
9987 7766 8093 1
9988 7767 7768 1
9989 7768 7769 1
9990 7768 7770 1
9991 7769 7784 1
9992 7771 7772 1
9993 7771 7774 1
9994 7771 7773 1
9995 7772 7793 1
9996 7774 7775 1
9997 7775 8151 1
9998 7775 7776 1
9999 7775 8096 1
10000 7777 7786 1
10001 7777 7789 1
10002 7778 7781 1
10003 7778 7779 1
10004 7778 7782 1
10005 7779 7780 1
10006 7780 7818 1
10007 7780 7783 1
10008 7783 7784 1
10009 7784 7824 1
10010 7784 7785 1
10011 7785 7786 1
10012 7786 7787 1
10013 7786 7788 1
10014 7789 7790 1
10015 7789 7792 1
10016 7789 7791 1
10017 7792 7793 1
10018 7793 7827 1
10019 7793 7794 1
10020 7795 7804 1
10021 7795 7807 1
10022 7796 7799 1
10023 7796 7797 1
10024 7796 7800 1
10025 7797 7798 1
10026 7798 7836 1
10027 7798 7801 1
10028 7798 7817 1
10029 7801 7802 1
10030 7802 7842 1
10031 7802 7823 1
10032 7802 7803 1
10033 7803 7804 1
10034 7804 7805 1
10035 7804 7806 1
10036 7807 7808 1
10037 7807 7810 1
10038 7807 7809 1
10039 7810 7811 1
10040 7811 7845 1
10041 7811 7812 1
10042 7811 7826 1
10043 7813 7822 1
10044 7813 7825 1
10045 7814 7817 1
10046 7814 7815 1
10047 7814 7818 1
10048 7815 7816 1
10049 7816 8160 1
10050 7816 7819 1
10051 7816 8141 1
10052 7819 7820 1
10053 7820 8166 1
10054 7820 7821 1
10055 7820 8147 1
10056 7821 7822 1
10057 7822 7823 1
10058 7822 7824 1
10059 7825 7826 1
10060 7825 7828 1
10061 7825 7827 1
10062 7828 7829 1
10063 7829 8169 1
10064 7829 7830 1
10065 7829 8150 1
10066 7831 7840 1
10067 7831 7843 1
10068 7832 7836 1
10069 7832 7833 1
10070 7832 7835 1
10071 7833 7834 1
10072 7834 8159 1
10073 7834 7837 1
10074 7834 8214 1
10075 7835 7852 1
10076 7837 7838 1
10077 7838 8165 1
10078 7838 7839 1
10079 7838 8220 1
10080 7839 7840 1
10081 7840 7842 1
10082 7840 7841 1
10083 7841 7856 1
10084 7843 7845 1
10085 7843 7846 1
10086 7843 7844 1
10087 7844 7865 1
10088 7846 7847 1
10089 7847 8168 1
10090 7847 7848 1
10091 7847 8223 1
10092 7849 7858 1
10093 7849 7861 1
10094 7850 7854 1
10095 7850 7851 1
10096 7850 7853 1
10097 7851 7852 1
10098 7852 7855 1
10099 7852 7890 1
10100 7855 7856 1
10101 7856 7896 1
10102 7856 7857 1
10103 7857 7858 1
10104 7858 7860 1
10105 7858 7859 1
10106 7861 7863 1
10107 7861 7864 1
10108 7861 7862 1
10109 7864 7865 1
10110 7865 7866 1
10111 7865 7899 1
10112 7867 7876 1
10113 7867 7879 1
10114 7868 7872 1
10115 7868 7869 1
10116 7868 7871 1
10117 7869 7870 1
10118 7870 7889 1
10119 7870 7873 1
10120 7870 7908 1
10121 7873 7874 1
10122 7874 7895 1
10123 7874 7914 1
10124 7874 7875 1
10125 7875 7876 1
10126 7876 7878 1
10127 7876 7877 1
10128 7879 7881 1
10129 7879 7882 1
10130 7879 7880 1
10131 7882 7883 1
10132 7883 7898 1
10133 7883 7884 1
10134 7883 7917 1
10135 7885 7894 1
10136 7885 7897 1
10137 7886 7890 1
10138 7886 7887 1
10139 7886 7889 1
10140 7887 7888 1
10141 7888 8213 1
10142 7888 7891 1
10143 7888 8232 1
10144 7891 7892 1
10145 7892 8219 1
10146 7892 7893 1
10147 7892 8238 1
10148 7893 7894 1
10149 7894 7896 1
10150 7894 7895 1
10151 7897 7899 1
10152 7897 7900 1
10153 7897 7898 1
10154 7900 7901 1
10155 7901 8222 1
10156 7901 7902 1
10157 7901 8241 1
10158 7903 7912 1
10159 7903 7915 1
10160 7904 7908 1
10161 7904 7905 1
10162 7904 7907 1
10163 7905 7906 1
10164 7906 8231 1
10165 7906 7909 1
10166 7906 7926 1
10167 7909 7910 1
10168 7910 8237 1
10169 7910 7911 1
10170 7910 7932 1
10171 7911 7912 1
10172 7912 7914 1
10173 7912 7913 1
10174 7915 7917 1
10175 7915 7918 1
10176 7915 7916 1
10177 7918 7919 1
10178 7919 8240 1
10179 7919 7920 1
10180 7919 7935 1
10181 7921 7930 1
10182 7921 7933 1
10183 7922 7923 1
10184 7922 7925 1
10185 7922 7926 1
10186 7923 7924 1
10187 7924 7962 1
10188 7924 7927 1
10189 7924 8267 1
10190 7927 7928 1
10191 7928 7968 1
10192 7928 7929 1
10193 7928 8273 1
10194 7929 7930 1
10195 7930 7931 1
10196 7930 7932 1
10197 7933 7936 1
10198 7933 7934 1
10199 7933 7935 1
10200 7936 7937 1
10201 7937 7971 1
10202 7937 7938 1
10203 7937 8276 1
10204 7939 7948 1
10205 7939 7951 1
10206 7940 7941 1
10207 7940 7944 1
10208 7940 7943 1
10209 7941 7942 1
10210 7942 7961 1
10211 7942 7980 1
10212 7942 7945 1
10213 7945 7946 1
10214 7946 7967 1
10215 7946 7986 1
10216 7946 7947 1
10217 7947 7948 1
10218 7948 7950 1
10219 7948 7949 1
10220 7951 7954 1
10221 7951 7953 1
10222 7951 7952 1
10223 7954 7955 1
10224 7955 7970 1
10225 7955 7989 1
10226 7955 7956 1
10227 7957 7966 1
10228 7957 7969 1
10229 7958 7959 1
10230 7958 7961 1
10231 7958 7962 1
10232 7959 7960 1
10233 7960 8304 1
10234 7960 8285 1
10235 7960 7963 1
10236 7963 7964 1
10237 7964 7965 1
10238 7964 8310 1
10239 7964 8291 1
10240 7965 7966 1
10241 7966 7967 1
10242 7966 7968 1
10243 7969 7972 1
10244 7969 7970 1
10245 7969 7971 1
10246 7972 7973 1
10247 7973 8313 1
10248 7973 8294 1
10249 7973 7974 1
10250 7975 7984 1
10251 7975 7987 1
10252 7976 7977 1
10253 7976 7979 1
10254 7976 7980 1
10255 7977 7978 1
10256 7978 8358 1
10257 7978 8303 1
10258 7978 7981 1
10259 7979 7996 1
10260 7981 7982 1
10261 7982 7983 1
10262 7982 8364 1
10263 7982 8309 1
10264 7983 7984 1
10265 7984 7985 1
10266 7984 7986 1
10267 7985 8000 1
10268 7987 7990 1
10269 7987 7988 1
10270 7987 7989 1
10271 7988 8009 1
10272 7990 7991 1
10273 7991 8367 1
10274 7991 8312 1
10275 7991 7992 1
10276 7993 8002 1
10277 7993 8005 1
10278 7994 7998 1
10279 7994 7995 1
10280 7994 7997 1
10281 7995 7996 1
10282 7996 7999 1
10283 7996 8034 1
10284 7999 8000 1
10285 8000 8040 1
10286 8000 8001 1
10287 8001 8002 1
10288 8002 8004 1
10289 8002 8003 1
10290 8005 8007 1
10291 8005 8008 1
10292 8005 8006 1
10293 8008 8009 1
10294 8009 8010 1
10295 8009 8043 1
10296 8011 8020 1
10297 8011 8023 1
10298 8012 8016 1
10299 8012 8013 1
10300 8012 8015 1
10301 8013 8014 1
10302 8014 8033 1
10303 8014 8017 1
10304 8014 8052 1
10305 8017 8018 1
10306 8018 8039 1
10307 8018 8058 1
10308 8018 8019 1
10309 8019 8020 1
10310 8020 8022 1
10311 8020 8021 1
10312 8023 8025 1
10313 8023 8026 1
10314 8023 8024 1
10315 8026 8027 1
10316 8027 8042 1
10317 8027 8028 1
10318 8027 8061 1
10319 8029 8038 1
10320 8029 8041 1
10321 8030 8034 1
10322 8030 8031 1
10323 8030 8033 1
10324 8031 8032 1
10325 8032 8357 1
10326 8032 8035 1
10327 8032 8376 1
10328 8035 8036 1
10329 8036 8363 1
10330 8036 8037 1
10331 8036 8382 1
10332 8037 8038 1
10333 8038 8040 1
10334 8038 8039 1
10335 8041 8043 1
10336 8041 8044 1
10337 8041 8042 1
10338 8044 8045 1
10339 8045 8366 1
10340 8045 8046 1
10341 8045 8385 1
10342 8047 8056 1
10343 8047 8059 1
10344 8048 8051 1
10345 8048 8052 1
10346 8048 8049 1
10347 8049 8050 1
10348 8050 8375 1
10349 8050 8430 1
10350 8050 8053 1
10351 8051 8068 1
10352 8053 8054 1
10353 8054 8381 1
10354 8054 8436 1
10355 8054 8055 1
10356 8055 8056 1
10357 8056 8057 1
10358 8056 8058 1
10359 8057 8072 1
10360 8059 8060 1
10361 8059 8061 1
10362 8059 8062 1
10363 8060 8081 1
10364 8062 8063 1
10365 8063 8384 1
10366 8063 8439 1
10367 8063 8064 1
10368 8065 8074 1
10369 8065 8077 1
10370 8066 8069 1
10371 8066 8067 1
10372 8066 8070 1
10373 8067 8068 1
10374 8068 8106 1
10375 8068 8071 1
10376 8071 8072 1
10377 8072 8112 1
10378 8072 8073 1
10379 8073 8074 1
10380 8074 8075 1
10381 8074 8076 1
10382 8077 8078 1
10383 8077 8080 1
10384 8077 8079 1
10385 8080 8081 1
10386 8081 8115 1
10387 8081 8082 1
10388 8083 8092 1
10389 8083 8095 1
10390 8084 8087 1
10391 8084 8085 1
10392 8084 8088 1
10393 8085 8086 1
10394 8086 8124 1
10395 8086 8089 1
10396 8086 8105 1
10397 8089 8090 1
10398 8090 8130 1
10399 8090 8111 1
10400 8090 8091 1
10401 8091 8092 1
10402 8092 8093 1
10403 8092 8094 1
10404 8095 8096 1
10405 8095 8098 1
10406 8095 8097 1
10407 8098 8099 1
10408 8099 8133 1
10409 8099 8100 1
10410 8099 8114 1
10411 8101 8110 1
10412 8101 8113 1
10413 8102 8105 1
10414 8102 8103 1
10415 8102 8106 1
10416 8103 8104 1
10417 8104 8448 1
10418 8104 8107 1
10419 8104 8429 1
10420 8107 8108 1
10421 8108 8454 1
10422 8108 8109 1
10423 8108 8435 1
10424 8109 8110 1
10425 8110 8111 1
10426 8110 8112 1
10427 8113 8114 1
10428 8113 8116 1
10429 8113 8115 1
10430 8116 8117 1
10431 8117 8457 1
10432 8117 8118 1
10433 8117 8438 1
10434 8119 8128 1
10435 8119 8131 1
10436 8120 8123 1
10437 8120 8121 1
10438 8120 8124 1
10439 8121 8122 1
10440 8122 8502 1
10441 8122 8125 1
10442 8122 8447 1
10443 8123 8140 1
10444 8125 8126 1
10445 8126 8508 1
10446 8126 8127 1
10447 8126 8453 1
10448 8127 8128 1
10449 8128 8129 1
10450 8128 8130 1
10451 8129 8144 1
10452 8131 8132 1
10453 8131 8134 1
10454 8131 8133 1
10455 8132 8153 1
10456 8134 8135 1
10457 8135 8511 1
10458 8135 8136 1
10459 8135 8456 1
10460 8137 8146 1
10461 8137 8149 1
10462 8138 8141 1
10463 8138 8139 1
10464 8138 8142 1
10465 8139 8140 1
10466 8140 8178 1
10467 8140 8143 1
10468 8143 8144 1
10469 8144 8184 1
10470 8144 8145 1
10471 8145 8146 1
10472 8146 8147 1
10473 8146 8148 1
10474 8149 8150 1
10475 8149 8152 1
10476 8149 8151 1
10477 8152 8153 1
10478 8153 8187 1
10479 8153 8154 1
10480 8155 8164 1
10481 8155 8167 1
10482 8156 8159 1
10483 8156 8157 1
10484 8156 8160 1
10485 8157 8158 1
10486 8158 8196 1
10487 8158 8161 1
10488 8158 8177 1
10489 8161 8162 1
10490 8162 8202 1
10491 8162 8183 1
10492 8162 8163 1
10493 8163 8164 1
10494 8164 8165 1
10495 8164 8166 1
10496 8167 8168 1
10497 8167 8170 1
10498 8167 8169 1
10499 8170 8171 1
10500 8171 8205 1
10501 8171 8172 1
10502 8171 8186 1
10503 8173 8182 1
10504 8173 8185 1
10505 8174 8177 1
10506 8174 8175 1
10507 8174 8178 1
10508 8175 8176 1
10509 8176 8520 1
10510 8176 8179 1
10511 8176 8501 1
10512 8179 8180 1
10513 8180 8526 1
10514 8180 8181 1
10515 8180 8507 1
10516 8181 8182 1
10517 8182 8183 1
10518 8182 8184 1
10519 8185 8186 1
10520 8185 8188 1
10521 8185 8187 1
10522 8188 8189 1
10523 8189 8529 1
10524 8189 8190 1
10525 8189 8510 1
10526 8191 8200 1
10527 8191 8203 1
10528 8192 8196 1
10529 8192 8193 1
10530 8192 8195 1
10531 8193 8194 1
10532 8194 8519 1
10533 8194 8197 1
10534 8194 8574 1
10535 8195 8212 1
10536 8197 8198 1
10537 8198 8525 1
10538 8198 8199 1
10539 8198 8580 1
10540 8199 8200 1
10541 8200 8202 1
10542 8200 8201 1
10543 8201 8216 1
10544 8203 8205 1
10545 8203 8206 1
10546 8203 8204 1
10547 8204 8225 1
10548 8206 8207 1
10549 8207 8528 1
10550 8207 8208 1
10551 8207 8583 1
10552 8209 8218 1
10553 8209 8221 1
10554 8210 8214 1
10555 8210 8211 1
10556 8210 8213 1
10557 8211 8212 1
10558 8212 8215 1
10559 8212 8250 1
10560 8215 8216 1
10561 8216 8256 1
10562 8216 8217 1
10563 8217 8218 1
10564 8218 8220 1
10565 8218 8219 1
10566 8221 8223 1
10567 8221 8224 1
10568 8221 8222 1
10569 8224 8225 1
10570 8225 8226 1
10571 8225 8259 1
10572 8227 8236 1
10573 8227 8239 1
10574 8228 8232 1
10575 8228 8229 1
10576 8228 8231 1
10577 8229 8230 1
10578 8230 8249 1
10579 8230 8233 1
10580 8230 8268 1
10581 8233 8234 1
10582 8234 8255 1
10583 8234 8274 1
10584 8234 8235 1
10585 8235 8236 1
10586 8236 8238 1
10587 8236 8237 1
10588 8239 8241 1
10589 8239 8242 1
10590 8239 8240 1
10591 8242 8243 1
10592 8243 8258 1
10593 8243 8244 1
10594 8243 8277 1
10595 8245 8254 1
10596 8245 8257 1
10597 8246 8250 1
10598 8246 8247 1
10599 8246 8249 1
10600 8247 8248 1
10601 8248 8573 1
10602 8248 8251 1
10603 8248 8592 1
10604 8251 8252 1
10605 8252 8579 1
10606 8252 8253 1
10607 8252 8598 1
10608 8253 8254 1
10609 8254 8256 1
10610 8254 8255 1
10611 8257 8259 1
10612 8257 8260 1
10613 8257 8258 1
10614 8260 8261 1
10615 8261 8582 1
10616 8261 8262 1
10617 8261 8601 1
10618 8263 8272 1
10619 8263 8275 1
10620 8264 8268 1
10621 8264 8265 1
10622 8264 8267 1
10623 8265 8266 1
10624 8266 8591 1
10625 8266 8269 1
10626 8266 8286 1
10627 8269 8270 1
10628 8270 8597 1
10629 8270 8271 1
10630 8270 8292 1
10631 8271 8272 1
10632 8272 8274 1
10633 8272 8273 1
10634 8275 8277 1
10635 8275 8278 1
10636 8275 8276 1
10637 8278 8279 1
10638 8279 8600 1
10639 8279 8280 1
10640 8279 8295 1
10641 8281 8290 1
10642 8281 8293 1
10643 8282 8283 1
10644 8282 8285 1
10645 8282 8286 1
10646 8283 8284 1
10647 8284 8322 1
10648 8284 8287 1
10649 8284 8627 1
10650 8287 8288 1
10651 8288 8328 1
10652 8288 8289 1
10653 8288 8633 1
10654 8289 8290 1
10655 8290 8291 1
10656 8290 8292 1
10657 8293 8296 1
10658 8293 8294 1
10659 8293 8295 1
10660 8296 8297 1
10661 8297 8331 1
10662 8297 8298 1
10663 8297 8636 1
10664 8299 8308 1
10665 8299 8311 1
10666 8300 8301 1
10667 8300 8304 1
10668 8300 8303 1
10669 8301 8302 1
10670 8302 8321 1
10671 8302 8340 1
10672 8302 8305 1
10673 8305 8306 1
10674 8306 8327 1
10675 8306 8346 1
10676 8306 8307 1
10677 8307 8308 1
10678 8308 8310 1
10679 8308 8309 1
10680 8311 8314 1
10681 8311 8313 1
10682 8311 8312 1
10683 8314 8315 1
10684 8315 8330 1
10685 8315 8349 1
10686 8315 8316 1
10687 8317 8326 1
10688 8317 8329 1
10689 8318 8319 1
10690 8318 8321 1
10691 8318 8322 1
10692 8319 8320 1
10693 8320 8664 1
10694 8320 8645 1
10695 8320 8323 1
10696 8323 8324 1
10697 8324 8325 1
10698 8324 8670 1
10699 8324 8651 1
10700 8325 8326 1
10701 8326 8327 1
10702 8326 8328 1
10703 8329 8332 1
10704 8329 8330 1
10705 8329 8331 1
10706 8332 8333 1
10707 8333 8673 1
10708 8333 8654 1
10709 8333 8334 1
10710 8335 8344 1
10711 8335 8347 1
10712 8336 8337 1
10713 8336 8339 1
10714 8336 8340 1
10715 8337 8338 1
10716 8338 8718 1
10717 8338 8663 1
10718 8338 8341 1
10719 8339 8356 1
10720 8341 8342 1
10721 8342 8343 1
10722 8342 8724 1
10723 8342 8669 1
10724 8343 8344 1
10725 8344 8345 1
10726 8344 8346 1
10727 8345 8360 1
10728 8347 8350 1
10729 8347 8348 1
10730 8347 8349 1
10731 8348 8369 1
10732 8350 8351 1
10733 8351 8727 1
10734 8351 8672 1
10735 8351 8352 1
10736 8353 8362 1
10737 8353 8365 1
10738 8354 8358 1
10739 8354 8355 1
10740 8354 8357 1
10741 8355 8356 1
10742 8356 8359 1
10743 8356 8394 1
10744 8359 8360 1
10745 8360 8400 1
10746 8360 8361 1
10747 8361 8362 1
10748 8362 8364 1
10749 8362 8363 1
10750 8365 8367 1
10751 8365 8368 1
10752 8365 8366 1
10753 8368 8369 1
10754 8369 8370 1
10755 8369 8403 1
10756 8371 8380 1
10757 8371 8383 1
10758 8372 8376 1
10759 8372 8373 1
10760 8372 8375 1
10761 8373 8374 1
10762 8374 8393 1
10763 8374 8377 1
10764 8374 8412 1
10765 8377 8378 1
10766 8378 8399 1
10767 8378 8418 1
10768 8378 8379 1
10769 8379 8380 1
10770 8380 8382 1
10771 8380 8381 1
10772 8383 8385 1
10773 8383 8386 1
10774 8383 8384 1
10775 8386 8387 1
10776 8387 8402 1
10777 8387 8388 1
10778 8387 8421 1
10779 8389 8398 1
10780 8389 8401 1
10781 8390 8394 1
10782 8390 8391 1
10783 8390 8393 1
10784 8391 8392 1
10785 8392 8717 1
10786 8392 8395 1
10787 8392 8736 1
10788 8395 8396 1
10789 8396 8723 1
10790 8396 8397 1
10791 8396 8742 1
10792 8397 8398 1
10793 8398 8400 1
10794 8398 8399 1
10795 8401 8403 1
10796 8401 8404 1
10797 8401 8402 1
10798 8404 8405 1
10799 8405 8726 1
10800 8405 8406 1
10801 8405 8745 1
10802 8407 8416 1
10803 8407 8419 1
10804 8408 8411 1
10805 8408 8412 1
10806 8408 8409 1
10807 8409 8410 1
10808 8410 8735 1
10809 8410 8790 1
10810 8410 8413 1
10811 8411 8428 1
10812 8413 8414 1
10813 8414 8741 1
10814 8414 8796 1
10815 8414 8415 1
10816 8415 8416 1
10817 8416 8417 1
10818 8416 8418 1
10819 8417 8432 1
10820 8419 8420 1
10821 8419 8421 1
10822 8419 8422 1
10823 8420 8441 1
10824 8422 8423 1
10825 8423 8744 1
10826 8423 8799 1
10827 8423 8424 1
10828 8425 8434 1
10829 8425 8437 1
10830 8426 8429 1
10831 8426 8427 1
10832 8426 8430 1
10833 8427 8428 1
10834 8428 8466 1
10835 8428 8431 1
10836 8431 8432 1
10837 8432 8472 1
10838 8432 8433 1
10839 8433 8434 1
10840 8434 8435 1
10841 8434 8436 1
10842 8437 8438 1
10843 8437 8440 1
10844 8437 8439 1
10845 8440 8441 1
10846 8441 8475 1
10847 8441 8442 1
10848 8443 8452 1
10849 8443 8455 1
10850 8444 8447 1
10851 8444 8445 1
10852 8444 8448 1
10853 8445 8446 1
10854 8446 8484 1
10855 8446 8449 1
10856 8446 8465 1
10857 8449 8450 1
10858 8450 8490 1
10859 8450 8471 1
10860 8450 8451 1
10861 8451 8452 1
10862 8452 8453 1
10863 8452 8454 1
10864 8455 8456 1
10865 8455 8458 1
10866 8455 8457 1
10867 8458 8459 1
10868 8459 8493 1
10869 8459 8460 1
10870 8459 8474 1
10871 8461 8470 1
10872 8461 8473 1
10873 8462 8465 1
10874 8462 8463 1
10875 8462 8466 1
10876 8463 8464 1
10877 8464 8808 1
10878 8464 8467 1
10879 8464 8789 1
10880 8467 8468 1
10881 8468 8814 1
10882 8468 8469 1
10883 8468 8795 1
10884 8469 8470 1
10885 8470 8471 1
10886 8470 8472 1
10887 8473 8474 1
10888 8473 8476 1
10889 8473 8475 1
10890 8476 8477 1
10891 8477 8817 1
10892 8477 8478 1
10893 8477 8798 1
10894 8479 8488 1
10895 8479 8491 1
10896 8480 8483 1
10897 8480 8481 1
10898 8480 8484 1
10899 8481 8482 1
10900 8482 8862 1
10901 8482 8485 1
10902 8482 8807 1
10903 8483 8500 1
10904 8485 8486 1
10905 8486 8868 1
10906 8486 8487 1
10907 8486 8813 1
10908 8487 8488 1
10909 8488 8489 1
10910 8488 8490 1
10911 8489 8504 1
10912 8491 8492 1
10913 8491 8494 1
10914 8491 8493 1
10915 8492 8513 1
10916 8494 8495 1
10917 8495 8871 1
10918 8495 8496 1
10919 8495 8816 1
10920 8497 8506 1
10921 8497 8509 1
10922 8498 8501 1
10923 8498 8499 1
10924 8498 8502 1
10925 8499 8500 1
10926 8500 8538 1
10927 8500 8503 1
10928 8503 8504 1
10929 8504 8544 1
10930 8504 8505 1
10931 8505 8506 1
10932 8506 8507 1
10933 8506 8508 1
10934 8509 8510 1
10935 8509 8512 1
10936 8509 8511 1
10937 8512 8513 1
10938 8513 8547 1
10939 8513 8514 1
10940 8515 8524 1
10941 8515 8527 1
10942 8516 8519 1
10943 8516 8517 1
10944 8516 8520 1
10945 8517 8518 1
10946 8518 8556 1
10947 8518 8521 1
10948 8518 8537 1
10949 8521 8522 1
10950 8522 8562 1
10951 8522 8543 1
10952 8522 8523 1
10953 8523 8524 1
10954 8524 8525 1
10955 8524 8526 1
10956 8527 8528 1
10957 8527 8530 1
10958 8527 8529 1
10959 8530 8531 1
10960 8531 8565 1
10961 8531 8532 1
10962 8531 8546 1
10963 8533 8542 1
10964 8533 8545 1
10965 8534 8537 1
10966 8534 8535 1
10967 8534 8538 1
10968 8535 8536 1
10969 8536 8880 1
10970 8536 8539 1
10971 8536 8861 1
10972 8539 8540 1
10973 8540 8886 1
10974 8540 8541 1
10975 8540 8867 1
10976 8541 8542 1
10977 8542 8543 1
10978 8542 8544 1
10979 8545 8546 1
10980 8545 8548 1
10981 8545 8547 1
10982 8548 8549 1
10983 8549 8889 1
10984 8549 8550 1
10985 8549 8870 1
10986 8551 8560 1
10987 8551 8563 1
10988 8552 8556 1
10989 8552 8553 1
10990 8552 8555 1
10991 8553 8554 1
10992 8554 8879 1
10993 8554 8557 1
10994 8554 8934 1
10995 8555 8572 1
10996 8557 8558 1
10997 8558 8885 1
10998 8558 8559 1
10999 8558 8940 1
11000 8559 8560 1
11001 8560 8562 1
11002 8560 8561 1
11003 8561 8576 1
11004 8563 8565 1
11005 8563 8566 1
11006 8563 8564 1
11007 8564 8585 1
11008 8566 8567 1
11009 8567 8888 1
11010 8567 8568 1
11011 8567 8943 1
11012 8569 8578 1
11013 8569 8581 1
11014 8570 8574 1
11015 8570 8571 1
11016 8570 8573 1
11017 8571 8572 1
11018 8572 8575 1
11019 8572 8610 1
11020 8575 8576 1
11021 8576 8616 1
11022 8576 8577 1
11023 8577 8578 1
11024 8578 8580 1
11025 8578 8579 1
11026 8581 8583 1
11027 8581 8584 1
11028 8581 8582 1
11029 8584 8585 1
11030 8585 8586 1
11031 8585 8619 1
11032 8587 8596 1
11033 8587 8599 1
11034 8588 8592 1
11035 8588 8589 1
11036 8588 8591 1
11037 8589 8590 1
11038 8590 8609 1
11039 8590 8593 1
11040 8590 8628 1
11041 8593 8594 1
11042 8594 8615 1
11043 8594 8634 1
11044 8594 8595 1
11045 8595 8596 1
11046 8596 8598 1
11047 8596 8597 1
11048 8599 8601 1
11049 8599 8602 1
11050 8599 8600 1
11051 8602 8603 1
11052 8603 8618 1
11053 8603 8604 1
11054 8603 8637 1
11055 8605 8614 1
11056 8605 8617 1
11057 8606 8610 1
11058 8606 8607 1
11059 8606 8609 1
11060 8607 8608 1
11061 8608 8933 1
11062 8608 8611 1
11063 8608 8952 1
11064 8611 8612 1
11065 8612 8939 1
11066 8612 8613 1
11067 8612 8958 1
11068 8613 8614 1
11069 8614 8616 1
11070 8614 8615 1
11071 8617 8619 1
11072 8617 8620 1
11073 8617 8618 1
11074 8620 8621 1
11075 8621 8942 1
11076 8621 8622 1
11077 8621 8961 1
11078 8623 8632 1
11079 8623 8635 1
11080 8624 8628 1
11081 8624 8625 1
11082 8624 8627 1
11083 8625 8626 1
11084 8626 8951 1
11085 8626 8629 1
11086 8626 8646 1
11087 8629 8630 1
11088 8630 8957 1
11089 8630 8631 1
11090 8630 8652 1
11091 8631 8632 1
11092 8632 8634 1
11093 8632 8633 1
11094 8635 8637 1
11095 8635 8638 1
11096 8635 8636 1
11097 8638 8639 1
11098 8639 8960 1
11099 8639 8640 1
11100 8639 8655 1
11101 8641 8650 1
11102 8641 8653 1
11103 8642 8645 1
11104 8642 8646 1
11105 8642 8643 1
11106 8643 8644 1
11107 8644 8682 1
11108 8644 8647 1
11109 8644 8987 1
11110 8647 8648 1
11111 8648 8649 1
11112 8648 8688 1
11113 8648 8993 1
11114 8649 8650 1
11115 8650 8651 1
11116 8650 8652 1
11117 8653 8654 1
11118 8653 8655 1
11119 8653 8656 1
11120 8656 8657 1
11121 8657 8691 1
11122 8657 8658 1
11123 8657 8996 1
11124 8659 8668 1
11125 8659 8671 1
11126 8660 8664 1
11127 8660 8663 1
11128 8660 8661 1
11129 8661 8662 1
11130 8662 8681 1
11131 8662 8700 1
11132 8662 8665 1
11133 8665 8666 1
11134 8666 8667 1
11135 8666 8687 1
11136 8666 8706 1
11137 8667 8668 1
11138 8668 8670 1
11139 8668 8669 1
11140 8671 8673 1
11141 8671 8672 1
11142 8671 8674 1
11143 8674 8675 1
11144 8675 8690 1
11145 8675 8709 1
11146 8675 8676 1
11147 8677 8686 1
11148 8677 8689 1
11149 8678 8679 1
11150 8678 8681 1
11151 8678 8682 1
11152 8679 8680 1
11153 8680 8683 1
11154 8683 8684 1
11155 8684 8685 1
11156 8685 8686 1
11157 8686 8687 1
11158 8686 8688 1
11159 8689 8692 1
11160 8689 8690 1
11161 8689 8691 1
11162 8692 8693 1
11163 8693 8694 1
11164 8695 8704 1
11165 8695 8707 1
11166 8696 8697 1
11167 8696 8699 1
11168 8696 8700 1
11169 8697 8698 1
11170 8698 8701 1
11171 8699 8716 1
11172 8701 8702 1
11173 8702 8703 1
11174 8703 8704 1
11175 8704 8705 1
11176 8704 8706 1
11177 8705 8720 1
11178 8707 8710 1
11179 8707 8708 1
11180 8707 8709 1
11181 8708 8729 1
11182 8710 8711 1
11183 8711 8712 1
11184 8713 8722 1
11185 8713 8725 1
11186 8714 8718 1
11187 8714 8717 1
11188 8714 8715 1
11189 8715 8716 1
11190 8716 8719 1
11191 8716 8754 1
11192 8719 8720 1
11193 8720 8721 1
11194 8720 8760 1
11195 8721 8722 1
11196 8722 8724 1
11197 8722 8723 1
11198 8725 8727 1
11199 8725 8726 1
11200 8725 8728 1
11201 8728 8729 1
11202 8729 8730 1
11203 8729 8763 1
11204 8731 8740 1
11205 8731 8743 1
11206 8732 8736 1
11207 8732 8735 1
11208 8732 8733 1
11209 8733 8734 1
11210 8734 8753 1
11211 8734 8737 1
11212 8734 8772 1
11213 8737 8738 1
11214 8738 8759 1
11215 8738 8739 1
11216 8738 8778 1
11217 8739 8740 1
11218 8740 8742 1
11219 8740 8741 1
11220 8743 8745 1
11221 8743 8744 1
11222 8743 8746 1
11223 8746 8747 1
11224 8747 8762 1
11225 8747 8748 1
11226 8747 8781 1
11227 8749 8758 1
11228 8749 8761 1
11229 8750 8754 1
11230 8750 8751 1
11231 8750 8753 1
11232 8751 8752 1
11233 8752 8755 1
11234 8755 8756 1
11235 8756 8757 1
11236 8757 8758 1
11237 8758 8760 1
11238 8758 8759 1
11239 8761 8763 1
11240 8761 8764 1
11241 8761 8762 1
11242 8764 8765 1
11243 8765 8766 1
11244 8767 8776 1
11245 8767 8779 1
11246 8768 8771 1
11247 8768 8772 1
11248 8768 8769 1
11249 8769 8770 1
11250 8770 8773 1
11251 8771 8788 1
11252 8773 8774 1
11253 8774 8775 1
11254 8775 8776 1
11255 8776 8777 1
11256 8776 8778 1
11257 8777 8792 1
11258 8779 8780 1
11259 8779 8781 1
11260 8779 8782 1
11261 8780 8801 1
11262 8782 8783 1
11263 8783 8784 1
11264 8785 8794 1
11265 8785 8797 1
11266 8786 8789 1
11267 8786 8790 1
11268 8786 8787 1
11269 8787 8788 1
11270 8788 8826 1
11271 8788 8791 1
11272 8791 8792 1
11273 8792 8832 1
11274 8792 8793 1
11275 8793 8794 1
11276 8794 8795 1
11277 8794 8796 1
11278 8797 8798 1
11279 8797 8799 1
11280 8797 8800 1
11281 8800 8801 1
11282 8801 8835 1
11283 8801 8802 1
11284 8803 8812 1
11285 8803 8815 1
11286 8804 8807 1
11287 8804 8808 1
11288 8804 8805 1
11289 8805 8806 1
11290 8806 8844 1
11291 8806 8809 1
11292 8806 8825 1
11293 8809 8810 1
11294 8810 8850 1
11295 8810 8811 1
11296 8810 8831 1
11297 8811 8812 1
11298 8812 8813 1
11299 8812 8814 1
11300 8815 8816 1
11301 8815 8817 1
11302 8815 8818 1
11303 8818 8819 1
11304 8819 8853 1
11305 8819 8820 1
11306 8819 8834 1
11307 8821 8830 1
11308 8821 8833 1
11309 8822 8825 1
11310 8822 8823 1
11311 8822 8826 1
11312 8823 8824 1
11313 8824 8827 1
11314 8827 8828 1
11315 8828 8829 1
11316 8829 8830 1
11317 8830 8831 1
11318 8830 8832 1
11319 8833 8834 1
11320 8833 8836 1
11321 8833 8835 1
11322 8836 8837 1
11323 8837 8838 1
11324 8839 8848 1
11325 8839 8851 1
11326 8840 8843 1
11327 8840 8841 1
11328 8840 8844 1
11329 8841 8842 1
11330 8842 8845 1
11331 8843 8860 1
11332 8845 8846 1
11333 8846 8847 1
11334 8847 8848 1
11335 8848 8849 1
11336 8848 8850 1
11337 8849 8864 1
11338 8851 8852 1
11339 8851 8854 1
11340 8851 8853 1
11341 8852 8873 1
11342 8854 8855 1
11343 8855 8856 1
11344 8857 8866 1
11345 8857 8869 1
11346 8858 8861 1
11347 8858 8862 1
11348 8858 8859 1
11349 8859 8860 1
11350 8860 8898 1
11351 8860 8863 1
11352 8863 8864 1
11353 8864 8904 1
11354 8864 8865 1
11355 8865 8866 1
11356 8866 8867 1
11357 8866 8868 1
11358 8869 8870 1
11359 8869 8871 1
11360 8869 8872 1
11361 8872 8873 1
11362 8873 8907 1
11363 8873 8874 1
11364 8875 8884 1
11365 8875 8887 1
11366 8876 8879 1
11367 8876 8880 1
11368 8876 8877 1
11369 8877 8878 1
11370 8878 8916 1
11371 8878 8881 1
11372 8878 8897 1
11373 8881 8882 1
11374 8882 8922 1
11375 8882 8883 1
11376 8882 8903 1
11377 8883 8884 1
11378 8884 8885 1
11379 8884 8886 1
11380 8887 8888 1
11381 8887 8889 1
11382 8887 8890 1
11383 8890 8891 1
11384 8891 8925 1
11385 8891 8892 1
11386 8891 8906 1
11387 8893 8902 1
11388 8893 8905 1
11389 8894 8897 1
11390 8894 8895 1
11391 8894 8898 1
11392 8895 8896 1
11393 8896 8899 1
11394 8899 8900 1
11395 8900 8901 1
11396 8901 8902 1
11397 8902 8903 1
11398 8902 8904 1
11399 8905 8906 1
11400 8905 8908 1
11401 8905 8907 1
11402 8908 8909 1
11403 8909 8910 1
11404 8911 8920 1
11405 8911 8923 1
11406 8912 8916 1
11407 8912 8913 1
11408 8912 8915 1
11409 8913 8914 1
11410 8914 8917 1
11411 8915 8932 1
11412 8917 8918 1
11413 8918 8919 1
11414 8919 8920 1
11415 8920 8922 1
11416 8920 8921 1
11417 8921 8936 1
11418 8923 8925 1
11419 8923 8926 1
11420 8923 8924 1
11421 8924 8945 1
11422 8926 8927 1
11423 8927 8928 1
11424 8929 8938 1
11425 8929 8941 1
11426 8930 8934 1
11427 8930 8933 1
11428 8930 8931 1
11429 8931 8932 1
11430 8932 8935 1
11431 8932 8970 1
11432 8935 8936 1
11433 8936 8937 1
11434 8936 8976 1
11435 8937 8938 1
11436 8938 8940 1
11437 8938 8939 1
11438 8941 8943 1
11439 8941 8942 1
11440 8941 8944 1
11441 8944 8945 1
11442 8945 8946 1
11443 8945 8979 1
11444 8947 8956 1
11445 8947 8959 1
11446 8948 8952 1
11447 8948 8951 1
11448 8948 8949 1
11449 8949 8950 1
11450 8950 8969 1
11451 8950 8953 1
11452 8950 8988 1
11453 8953 8954 1
11454 8954 8975 1
11455 8954 8955 1
11456 8954 8994 1
11457 8955 8956 1
11458 8956 8958 1
11459 8956 8957 1
11460 8959 8961 1
11461 8959 8960 1
11462 8959 8962 1
11463 8962 8963 1
11464 8963 8978 1
11465 8963 8964 1
11466 8963 8997 1
11467 8965 8974 1
11468 8965 8977 1
11469 8966 8970 1
11470 8966 8967 1
11471 8966 8969 1
11472 8967 8968 1
11473 8968 8971 1
11474 8971 8972 1
11475 8972 8973 1
11476 8973 8974 1
11477 8974 8976 1
11478 8974 8975 1
11479 8977 8979 1
11480 8977 8980 1
11481 8977 8978 1
11482 8980 8981 1
11483 8981 8982 1
11484 8983 8992 1
11485 8983 8995 1
11486 8984 8988 1
11487 8984 8985 1
11488 8984 8987 1
11489 8985 8986 1
11490 8986 8989 1
11491 8989 8990 1
11492 8990 8991 1
11493 8991 8992 1
11494 8992 8994 1
11495 8992 8993 1
11496 8995 8997 1
11497 8995 8998 1
11498 8995 8996 1
11499 8998 8999 1
11500 8999 9000 1
11501 9001 9010 1
11502 9001 9013 1
11503 9002 9005 1
11504 9002 9006 1
11505 9002 9003 1
11506 9003 9004 1
11507 9004 9042 1
11508 9004 9007 1
11509 9004 9347 1
11510 9005 10480 1
11511 9006 10786 1
11512 9007 9008 1
11513 9008 9009 1
11514 9008 9048 1
11515 9008 9353 1
11516 9009 9010 1
11517 9010 9011 1
11518 9010 9012 1
11519 9011 10484 1
11520 9012 10790 1
11521 9013 9014 1
11522 9013 9015 1
11523 9013 9016 1
11524 9014 10493 1
11525 9015 10799 1
11526 9016 9017 1
11527 9017 9051 1
11528 9017 9018 1
11529 9017 9356 1
11530 9019 9028 1
11531 9019 9031 1
11532 9020 9024 1
11533 9020 9023 1
11534 9020 9021 1
11535 9021 9022 1
11536 9022 9041 1
11537 9022 9025 1
11538 9022 9060 1
11539 9023 10498 1
11540 9024 10480 1
11541 9025 9026 1
11542 9026 9027 1
11543 9026 9047 1
11544 9026 9066 1
11545 9027 9028 1
11546 9028 9030 1
11547 9028 9029 1
11548 9029 10502 1
11549 9030 10484 1
11550 9031 9033 1
11551 9031 9032 1
11552 9031 9034 1
11553 9032 10511 1
11554 9033 10493 1
11555 9034 9035 1
11556 9035 9050 1
11557 9035 9069 1
11558 9035 9036 1
11559 9037 9046 1
11560 9037 9049 1
11561 9038 9039 1
11562 9038 9041 1
11563 9038 9042 1
11564 9039 9040 1
11565 9040 9043 1
11566 9040 9384 1
11567 9040 9365 1
11568 9043 9044 1
11569 9044 9045 1
11570 9044 9390 1
11571 9044 9371 1
11572 9045 9046 1
11573 9046 9047 1
11574 9046 9048 1
11575 9049 9052 1
11576 9049 9050 1
11577 9049 9051 1
11578 9052 9053 1
11579 9053 9393 1
11580 9053 9374 1
11581 9053 9054 1
11582 9055 9064 1
11583 9055 9067 1
11584 9056 9059 1
11585 9056 9057 1
11586 9056 9060 1
11587 9057 9058 1
11588 9058 9438 1
11589 9058 9061 1
11590 9058 9383 1
11591 9059 9076 1
11592 9061 9062 1
11593 9062 9444 1
11594 9062 9063 1
11595 9062 9389 1
11596 9063 9064 1
11597 9064 9065 1
11598 9064 9066 1
11599 9065 9080 1
11600 9067 9068 1
11601 9067 9070 1
11602 9067 9069 1
11603 9068 9089 1
11604 9070 9071 1
11605 9071 9447 1
11606 9071 9392 1
11607 9071 9072 1
11608 9073 9082 1
11609 9073 9085 1
11610 9074 9078 1
11611 9074 9075 1
11612 9074 9077 1
11613 9075 9076 1
11614 9076 9079 1
11615 9076 9114 1
11616 9077 10552 1
11617 9078 10498 1
11618 9079 9080 1
11619 9080 9081 1
11620 9080 9120 1
11621 9081 9082 1
11622 9082 9084 1
11623 9082 9083 1
11624 9083 10556 1
11625 9084 10502 1
11626 9085 9087 1
11627 9085 9088 1
11628 9085 9086 1
11629 9086 10565 1
11630 9087 10511 1
11631 9088 9089 1
11632 9089 9090 1
11633 9089 9123 1
11634 9091 9100 1
11635 9091 9103 1
11636 9092 9096 1
11637 9092 9093 1
11638 9092 9095 1
11639 9093 9094 1
11640 9094 9113 1
11641 9094 9097 1
11642 9094 9132 1
11643 9095 10570 1
11644 9096 10552 1
11645 9097 9098 1
11646 9098 9119 1
11647 9098 9099 1
11648 9098 9138 1
11649 9099 9100 1
11650 9100 9102 1
11651 9100 9101 1
11652 9101 10574 1
11653 9102 10556 1
11654 9103 9105 1
11655 9103 9106 1
11656 9103 9104 1
11657 9104 10583 1
11658 9105 10565 1
11659 9106 9107 1
11660 9107 9122 1
11661 9107 9108 1
11662 9107 9141 1
11663 9109 9118 1
11664 9109 9121 1
11665 9110 9114 1
11666 9110 9111 1
11667 9110 9113 1
11668 9111 9112 1
11669 9112 9437 1
11670 9112 9115 1
11671 9112 9456 1
11672 9115 9116 1
11673 9116 9443 1
11674 9116 9117 1
11675 9116 9462 1
11676 9117 9118 1
11677 9118 9120 1
11678 9118 9119 1
11679 9121 9123 1
11680 9121 9124 1
11681 9121 9122 1
11682 9124 9125 1
11683 9125 9446 1
11684 9125 9126 1
11685 9125 9465 1
11686 9127 9136 1
11687 9127 9139 1
11688 9128 9131 1
11689 9128 9132 1
11690 9128 9129 1
11691 9129 9130 1
11692 9130 9455 1
11693 9130 9510 1
11694 9130 9133 1
11695 9131 9148 1
11696 9133 9134 1
11697 9134 9461 1
11698 9134 9516 1
11699 9134 9135 1
11700 9135 9136 1
11701 9136 9137 1
11702 9136 9138 1
11703 9137 9152 1
11704 9139 9140 1
11705 9139 9141 1
11706 9139 9142 1
11707 9140 9161 1
11708 9142 9143 1
11709 9143 9464 1
11710 9143 9519 1
11711 9143 9144 1
11712 9145 9154 1
11713 9145 9157 1
11714 9146 9149 1
11715 9146 9147 1
11716 9146 9150 1
11717 9147 9148 1
11718 9148 9186 1
11719 9148 9151 1
11720 9149 10624 1
11721 9150 10570 1
11722 9151 9152 1
11723 9152 9192 1
11724 9152 9153 1
11725 9153 9154 1
11726 9154 9155 1
11727 9154 9156 1
11728 9155 10628 1
11729 9156 10574 1
11730 9157 9158 1
11731 9157 9160 1
11732 9157 9159 1
11733 9158 10637 1
11734 9159 10583 1
11735 9160 9161 1
11736 9161 9195 1
11737 9161 9162 1
11738 9163 9172 1
11739 9163 9175 1
11740 9164 9167 1
11741 9164 9165 1
11742 9164 9168 1
11743 9165 9166 1
11744 9166 9204 1
11745 9166 9169 1
11746 9166 9185 1
11747 9167 10642 1
11748 9168 10624 1
11749 9169 9170 1
11750 9170 9210 1
11751 9170 9171 1
11752 9170 9191 1
11753 9171 9172 1
11754 9172 9173 1
11755 9172 9174 1
11756 9173 10646 1
11757 9174 10628 1
11758 9175 9176 1
11759 9175 9178 1
11760 9175 9177 1
11761 9176 10655 1
11762 9177 10637 1
11763 9178 9179 1
11764 9179 9213 1
11765 9179 9180 1
11766 9179 9194 1
11767 9181 9190 1
11768 9181 9193 1
11769 9182 9185 1
11770 9182 9183 1
11771 9182 9186 1
11772 9183 9184 1
11773 9184 9528 1
11774 9184 9187 1
11775 9184 9509 1
11776 9187 9188 1
11777 9188 9534 1
11778 9188 9189 1
11779 9188 9515 1
11780 9189 9190 1
11781 9190 9191 1
11782 9190 9192 1
11783 9193 9194 1
11784 9193 9196 1
11785 9193 9195 1
11786 9196 9197 1
11787 9197 9537 1
11788 9197 9198 1
11789 9197 9518 1
11790 9199 9208 1
11791 9199 9211 1
11792 9200 9203 1
11793 9200 9201 1
11794 9200 9204 1
11795 9201 9202 1
11796 9202 9582 1
11797 9202 9205 1
11798 9202 9527 1
11799 9203 9220 1
11800 9205 9206 1
11801 9206 9588 1
11802 9206 9207 1
11803 9206 9533 1
11804 9207 9208 1
11805 9208 9209 1
11806 9208 9210 1
11807 9209 9224 1
11808 9211 9212 1
11809 9211 9214 1
11810 9211 9213 1
11811 9212 9233 1
11812 9214 9215 1
11813 9215 9591 1
11814 9215 9216 1
11815 9215 9536 1
11816 9217 9226 1
11817 9217 9229 1
11818 9218 9221 1
11819 9218 9219 1
11820 9218 9222 1
11821 9219 9220 1
11822 9220 9258 1
11823 9220 9223 1
11824 9221 10696 1
11825 9222 10642 1
11826 9223 9224 1
11827 9224 9264 1
11828 9224 9225 1
11829 9225 9226 1
11830 9226 9227 1
11831 9226 9228 1
11832 9227 10700 1
11833 9228 10646 1
11834 9229 9230 1
11835 9229 9232 1
11836 9229 9231 1
11837 9230 10709 1
11838 9231 10655 1
11839 9232 9233 1
11840 9233 9267 1
11841 9233 9234 1
11842 9235 9244 1
11843 9235 9247 1
11844 9236 9239 1
11845 9236 9237 1
11846 9236 9240 1
11847 9237 9238 1
11848 9238 9276 1
11849 9238 9241 1
11850 9238 9257 1
11851 9239 10714 1
11852 9240 10696 1
11853 9241 9242 1
11854 9242 9282 1
11855 9242 9243 1
11856 9242 9263 1
11857 9243 9244 1
11858 9244 9245 1
11859 9244 9246 1
11860 9245 10718 1
11861 9246 10700 1
11862 9247 9248 1
11863 9247 9250 1
11864 9247 9249 1
11865 9248 10727 1
11866 9249 10709 1
11867 9250 9251 1
11868 9251 9285 1
11869 9251 9252 1
11870 9251 9266 1
11871 9253 9262 1
11872 9253 9265 1
11873 9254 9257 1
11874 9254 9255 1
11875 9254 9258 1
11876 9255 9256 1
11877 9256 9600 1
11878 9256 9259 1
11879 9256 9581 1
11880 9259 9260 1
11881 9260 9606 1
11882 9260 9261 1
11883 9260 9587 1
11884 9261 9262 1
11885 9262 9263 1
11886 9262 9264 1
11887 9265 9266 1
11888 9265 9268 1
11889 9265 9267 1
11890 9268 9269 1
11891 9269 9609 1
11892 9269 9270 1
11893 9269 9590 1
11894 9271 9280 1
11895 9271 9283 1
11896 9272 9276 1
11897 9272 9273 1
11898 9272 9275 1
11899 9273 9274 1
11900 9274 9599 1
11901 9274 9277 1
11902 9274 9654 1
11903 9275 9292 1
11904 9277 9278 1
11905 9278 9605 1
11906 9278 9279 1
11907 9278 9660 1
11908 9279 9280 1
11909 9280 9282 1
11910 9280 9281 1
11911 9281 9296 1
11912 9283 9285 1
11913 9283 9286 1
11914 9283 9284 1
11915 9284 9305 1
11916 9286 9287 1
11917 9287 9608 1
11918 9287 9288 1
11919 9287 9663 1
11920 9289 9298 1
11921 9289 9301 1
11922 9290 9294 1
11923 9290 9291 1
11924 9290 9293 1
11925 9291 9292 1
11926 9292 9295 1
11927 9292 9330 1
11928 9293 10768 1
11929 9294 10714 1
11930 9295 9296 1
11931 9296 9297 1
11932 9296 9336 1
11933 9297 9298 1
11934 9298 9300 1
11935 9298 9299 1
11936 9299 10772 1
11937 9300 10718 1
11938 9301 9303 1
11939 9301 9304 1
11940 9301 9302 1
11941 9302 10781 1
11942 9303 10727 1
11943 9304 9305 1
11944 9305 9306 1
11945 9305 9339 1
11946 9307 9316 1
11947 9307 9319 1
11948 9308 9312 1
11949 9308 9309 1
11950 9308 9311 1
11951 9309 9310 1
11952 9310 9329 1
11953 9310 9313 1
11954 9310 9348 1
11955 9311 10786 1
11956 9312 10768 1
11957 9313 9314 1
11958 9314 9335 1
11959 9314 9315 1
11960 9314 9354 1
11961 9315 9316 1
11962 9316 9318 1
11963 9316 9317 1
11964 9317 10790 1
11965 9318 10772 1
11966 9319 9321 1
11967 9319 9322 1
11968 9319 9320 1
11969 9320 10799 1
11970 9321 10781 1
11971 9322 9323 1
11972 9323 9338 1
11973 9323 9324 1
11974 9323 9357 1
11975 9325 9334 1
11976 9325 9337 1
11977 9326 9330 1
11978 9326 9327 1
11979 9326 9329 1
11980 9327 9328 1
11981 9328 9653 1
11982 9328 9331 1
11983 9328 9672 1
11984 9331 9332 1
11985 9332 9659 1
11986 9332 9333 1
11987 9332 9678 1
11988 9333 9334 1
11989 9334 9336 1
11990 9334 9335 1
11991 9337 9339 1
11992 9337 9340 1
11993 9337 9338 1
11994 9340 9341 1
11995 9341 9662 1
11996 9341 9342 1
11997 9341 9681 1
11998 9343 9352 1
11999 9343 9355 1
12000 9344 9348 1
12001 9344 9345 1
12002 9344 9347 1
12003 9345 9346 1
12004 9346 9671 1
12005 9346 9349 1
12006 9346 9366 1
12007 9349 9350 1
12008 9350 9677 1
12009 9350 9351 1
12010 9350 9372 1
12011 9351 9352 1
12012 9352 9354 1
12013 9352 9353 1
12014 9355 9357 1
12015 9355 9358 1
12016 9355 9356 1
12017 9358 9359 1
12018 9359 9680 1
12019 9359 9360 1
12020 9359 9375 1
12021 9361 9370 1
12022 9361 9373 1
12023 9362 9363 1
12024 9362 9365 1
12025 9362 9366 1
12026 9363 9364 1
12027 9364 9402 1
12028 9364 9367 1
12029 9364 9707 1
12030 9367 9368 1
12031 9368 9408 1
12032 9368 9369 1
12033 9368 9713 1
12034 9369 9370 1
12035 9370 9371 1
12036 9370 9372 1
12037 9373 9376 1
12038 9373 9374 1
12039 9373 9375 1
12040 9376 9377 1
12041 9377 9411 1
12042 9377 9378 1
12043 9377 9716 1
12044 9379 9388 1
12045 9379 9391 1
12046 9380 9381 1
12047 9380 9384 1
12048 9380 9383 1
12049 9381 9382 1
12050 9382 9401 1
12051 9382 9420 1
12052 9382 9385 1
12053 9385 9386 1
12054 9386 9407 1
12055 9386 9426 1
12056 9386 9387 1
12057 9387 9388 1
12058 9388 9390 1
12059 9388 9389 1
12060 9391 9394 1
12061 9391 9393 1
12062 9391 9392 1
12063 9394 9395 1
12064 9395 9410 1
12065 9395 9429 1
12066 9395 9396 1
12067 9397 9406 1
12068 9397 9409 1
12069 9398 9399 1
12070 9398 9401 1
12071 9398 9402 1
12072 9399 9400 1
12073 9400 9744 1
12074 9400 9725 1
12075 9400 9403 1
12076 9403 9404 1
12077 9404 9405 1
12078 9404 9750 1
12079 9404 9731 1
12080 9405 9406 1
12081 9406 9407 1
12082 9406 9408 1
12083 9409 9412 1
12084 9409 9410 1
12085 9409 9411 1
12086 9412 9413 1
12087 9413 9753 1
12088 9413 9734 1
12089 9413 9414 1
12090 9415 9424 1
12091 9415 9427 1
12092 9416 9417 1
12093 9416 9419 1
12094 9416 9420 1
12095 9417 9418 1
12096 9418 9798 1
12097 9418 9743 1
12098 9418 9421 1
12099 9419 9436 1
12100 9421 9422 1
12101 9422 9423 1
12102 9422 9804 1
12103 9422 9749 1
12104 9423 9424 1
12105 9424 9425 1
12106 9424 9426 1
12107 9425 9440 1
12108 9427 9430 1
12109 9427 9428 1
12110 9427 9429 1
12111 9428 9449 1
12112 9430 9431 1
12113 9431 9807 1
12114 9431 9752 1
12115 9431 9432 1
12116 9433 9442 1
12117 9433 9445 1
12118 9434 9435 1
12119 9434 9438 1
12120 9434 9437 1
12121 9435 9436 1
12122 9436 9439 1
12123 9436 9474 1
12124 9439 9440 1
12125 9440 9480 1
12126 9440 9441 1
12127 9441 9442 1
12128 9442 9444 1
12129 9442 9443 1
12130 9445 9448 1
12131 9445 9447 1
12132 9445 9446 1
12133 9448 9449 1
12134 9449 9450 1
12135 9449 9483 1
12136 9451 9460 1
12137 9451 9463 1
12138 9452 9456 1
12139 9452 9453 1
12140 9452 9455 1
12141 9453 9454 1
12142 9454 9473 1
12143 9454 9457 1
12144 9454 9492 1
12145 9457 9458 1
12146 9458 9479 1
12147 9458 9498 1
12148 9458 9459 1
12149 9459 9460 1
12150 9460 9462 1
12151 9460 9461 1
12152 9463 9465 1
12153 9463 9466 1
12154 9463 9464 1
12155 9466 9467 1
12156 9467 9482 1
12157 9467 9468 1
12158 9467 9501 1
12159 9469 9478 1
12160 9469 9481 1
12161 9470 9474 1
12162 9470 9471 1
12163 9470 9473 1
12164 9471 9472 1
12165 9472 9797 1
12166 9472 9475 1
12167 9472 9816 1
12168 9475 9476 1
12169 9476 9803 1
12170 9476 9477 1
12171 9476 9822 1
12172 9477 9478 1
12173 9478 9480 1
12174 9478 9479 1
12175 9481 9483 1
12176 9481 9484 1
12177 9481 9482 1
12178 9484 9485 1
12179 9485 9806 1
12180 9485 9486 1
12181 9485 9825 1
12182 9487 9496 1
12183 9487 9499 1
12184 9488 9491 1
12185 9488 9492 1
12186 9488 9489 1
12187 9489 9490 1
12188 9490 9815 1
12189 9490 9870 1
12190 9490 9493 1
12191 9491 9508 1
12192 9493 9494 1
12193 9494 9821 1
12194 9494 9876 1
12195 9494 9495 1
12196 9495 9496 1
12197 9496 9497 1
12198 9496 9498 1
12199 9497 9512 1
12200 9499 9500 1
12201 9499 9501 1
12202 9499 9502 1
12203 9500 9521 1
12204 9502 9503 1
12205 9503 9824 1
12206 9503 9879 1
12207 9503 9504 1
12208 9505 9514 1
12209 9505 9517 1
12210 9506 9509 1
12211 9506 9507 1
12212 9506 9510 1
12213 9507 9508 1
12214 9508 9546 1
12215 9508 9511 1
12216 9511 9512 1
12217 9512 9552 1
12218 9512 9513 1
12219 9513 9514 1
12220 9514 9515 1
12221 9514 9516 1
12222 9517 9518 1
12223 9517 9520 1
12224 9517 9519 1
12225 9520 9521 1
12226 9521 9555 1
12227 9521 9522 1
12228 9523 9532 1
12229 9523 9535 1
12230 9524 9527 1
12231 9524 9525 1
12232 9524 9528 1
12233 9525 9526 1
12234 9526 9564 1
12235 9526 9529 1
12236 9526 9545 1
12237 9529 9530 1
12238 9530 9570 1
12239 9530 9551 1
12240 9530 9531 1
12241 9531 9532 1
12242 9532 9533 1
12243 9532 9534 1
12244 9535 9536 1
12245 9535 9538 1
12246 9535 9537 1
12247 9538 9539 1
12248 9539 9573 1
12249 9539 9540 1
12250 9539 9554 1
12251 9541 9550 1
12252 9541 9553 1
12253 9542 9545 1
12254 9542 9543 1
12255 9542 9546 1
12256 9543 9544 1
12257 9544 9888 1
12258 9544 9547 1
12259 9544 9869 1
12260 9547 9548 1
12261 9548 9894 1
12262 9548 9549 1
12263 9548 9875 1
12264 9549 9550 1
12265 9550 9551 1
12266 9550 9552 1
12267 9553 9554 1
12268 9553 9556 1
12269 9553 9555 1
12270 9556 9557 1
12271 9557 9897 1
12272 9557 9558 1
12273 9557 9878 1
12274 9559 9568 1
12275 9559 9571 1
12276 9560 9563 1
12277 9560 9561 1
12278 9560 9564 1
12279 9561 9562 1
12280 9562 9942 1
12281 9562 9565 1
12282 9562 9887 1
12283 9563 9580 1
12284 9565 9566 1
12285 9566 9948 1
12286 9566 9567 1
12287 9566 9893 1
12288 9567 9568 1
12289 9568 9569 1
12290 9568 9570 1
12291 9569 9584 1
12292 9571 9572 1
12293 9571 9574 1
12294 9571 9573 1
12295 9572 9593 1
12296 9574 9575 1
12297 9575 9951 1
12298 9575 9576 1
12299 9575 9896 1
12300 9577 9586 1
12301 9577 9589 1
12302 9578 9581 1
12303 9578 9579 1
12304 9578 9582 1
12305 9579 9580 1
12306 9580 9618 1
12307 9580 9583 1
12308 9583 9584 1
12309 9584 9624 1
12310 9584 9585 1
12311 9585 9586 1
12312 9586 9587 1
12313 9586 9588 1
12314 9589 9590 1
12315 9589 9592 1
12316 9589 9591 1
12317 9592 9593 1
12318 9593 9627 1
12319 9593 9594 1
12320 9595 9604 1
12321 9595 9607 1
12322 9596 9599 1
12323 9596 9597 1
12324 9596 9600 1
12325 9597 9598 1
12326 9598 9636 1
12327 9598 9601 1
12328 9598 9617 1
12329 9601 9602 1
12330 9602 9642 1
12331 9602 9623 1
12332 9602 9603 1
12333 9603 9604 1
12334 9604 9605 1
12335 9604 9606 1
12336 9607 9608 1
12337 9607 9610 1
12338 9607 9609 1
12339 9610 9611 1
12340 9611 9645 1
12341 9611 9612 1
12342 9611 9626 1
12343 9613 9622 1
12344 9613 9625 1
12345 9614 9617 1
12346 9614 9615 1
12347 9614 9618 1
12348 9615 9616 1
12349 9616 9960 1
12350 9616 9619 1
12351 9616 9941 1
12352 9619 9620 1
12353 9620 9966 1
12354 9620 9621 1
12355 9620 9947 1
12356 9621 9622 1
12357 9622 9623 1
12358 9622 9624 1
12359 9625 9626 1
12360 9625 9628 1
12361 9625 9627 1
12362 9628 9629 1
12363 9629 9969 1
12364 9629 9630 1
12365 9629 9950 1
12366 9631 9640 1
12367 9631 9643 1
12368 9632 9636 1
12369 9632 9633 1
12370 9632 9635 1
12371 9633 9634 1
12372 9634 9959 1
12373 9634 9637 1
12374 9634 10014 1
12375 9635 9652 1
12376 9637 9638 1
12377 9638 9965 1
12378 9638 9639 1
12379 9638 10020 1
12380 9639 9640 1
12381 9640 9642 1
12382 9640 9641 1
12383 9641 9656 1
12384 9643 9645 1
12385 9643 9646 1
12386 9643 9644 1
12387 9644 9665 1
12388 9646 9647 1
12389 9647 9968 1
12390 9647 9648 1
12391 9647 10023 1
12392 9649 9658 1
12393 9649 9661 1
12394 9650 9654 1
12395 9650 9651 1
12396 9650 9653 1
12397 9651 9652 1
12398 9652 9655 1
12399 9652 9690 1
12400 9655 9656 1
12401 9656 9696 1
12402 9656 9657 1
12403 9657 9658 1
12404 9658 9660 1
12405 9658 9659 1
12406 9661 9663 1
12407 9661 9664 1
12408 9661 9662 1
12409 9664 9665 1
12410 9665 9666 1
12411 9665 9699 1
12412 9667 9676 1
12413 9667 9679 1
12414 9668 9672 1
12415 9668 9669 1
12416 9668 9671 1
12417 9669 9670 1
12418 9670 9689 1
12419 9670 9673 1
12420 9670 9708 1
12421 9673 9674 1
12422 9674 9695 1
12423 9674 9714 1
12424 9674 9675 1
12425 9675 9676 1
12426 9676 9678 1
12427 9676 9677 1
12428 9679 9681 1
12429 9679 9682 1
12430 9679 9680 1
12431 9682 9683 1
12432 9683 9698 1
12433 9683 9684 1
12434 9683 9717 1
12435 9685 9694 1
12436 9685 9697 1
12437 9686 9690 1
12438 9686 9687 1
12439 9686 9689 1
12440 9687 9688 1
12441 9688 10013 1
12442 9688 9691 1
12443 9688 10032 1
12444 9691 9692 1
12445 9692 10019 1
12446 9692 9693 1
12447 9692 10038 1
12448 9693 9694 1
12449 9694 9696 1
12450 9694 9695 1
12451 9697 9699 1
12452 9697 9700 1
12453 9697 9698 1
12454 9700 9701 1
12455 9701 10022 1
12456 9701 9702 1
12457 9701 10041 1
12458 9703 9712 1
12459 9703 9715 1
12460 9704 9708 1
12461 9704 9705 1
12462 9704 9707 1
12463 9705 9706 1
12464 9706 10031 1
12465 9706 9709 1
12466 9706 9726 1
12467 9709 9710 1
12468 9710 10037 1
12469 9710 9711 1
12470 9710 9732 1
12471 9711 9712 1
12472 9712 9714 1
12473 9712 9713 1
12474 9715 9717 1
12475 9715 9718 1
12476 9715 9716 1
12477 9718 9719 1
12478 9719 10040 1
12479 9719 9720 1
12480 9719 9735 1
12481 9721 9730 1
12482 9721 9733 1
12483 9722 9723 1
12484 9722 9725 1
12485 9722 9726 1
12486 9723 9724 1
12487 9724 9762 1
12488 9724 9727 1
12489 9724 10067 1
12490 9727 9728 1
12491 9728 9768 1
12492 9728 9729 1
12493 9728 10073 1
12494 9729 9730 1
12495 9730 9731 1
12496 9730 9732 1
12497 9733 9736 1
12498 9733 9734 1
12499 9733 9735 1
12500 9736 9737 1
12501 9737 9771 1
12502 9737 9738 1
12503 9737 10076 1
12504 9739 9748 1
12505 9739 9751 1
12506 9740 9741 1
12507 9740 9744 1
12508 9740 9743 1
12509 9741 9742 1
12510 9742 9761 1
12511 9742 9780 1
12512 9742 9745 1
12513 9745 9746 1
12514 9746 9767 1
12515 9746 9786 1
12516 9746 9747 1
12517 9747 9748 1
12518 9748 9750 1
12519 9748 9749 1
12520 9751 9754 1
12521 9751 9753 1
12522 9751 9752 1
12523 9754 9755 1
12524 9755 9770 1
12525 9755 9789 1
12526 9755 9756 1
12527 9757 9766 1
12528 9757 9769 1
12529 9758 9759 1
12530 9758 9761 1
12531 9758 9762 1
12532 9759 9760 1
12533 9760 10104 1
12534 9760 10085 1
12535 9760 9763 1
12536 9763 9764 1
12537 9764 9765 1
12538 9764 10110 1
12539 9764 10091 1
12540 9765 9766 1
12541 9766 9767 1
12542 9766 9768 1
12543 9769 9772 1
12544 9769 9770 1
12545 9769 9771 1
12546 9772 9773 1
12547 9773 10113 1
12548 9773 10094 1
12549 9773 9774 1
12550 9775 9784 1
12551 9775 9787 1
12552 9776 9777 1
12553 9776 9779 1
12554 9776 9780 1
12555 9777 9778 1
12556 9778 10158 1
12557 9778 10103 1
12558 9778 9781 1
12559 9779 9796 1
12560 9781 9782 1
12561 9782 9783 1
12562 9782 10164 1
12563 9782 10109 1
12564 9783 9784 1
12565 9784 9785 1
12566 9784 9786 1
12567 9785 9800 1
12568 9787 9790 1
12569 9787 9788 1
12570 9787 9789 1
12571 9788 9809 1
12572 9790 9791 1
12573 9791 10167 1
12574 9791 10112 1
12575 9791 9792 1
12576 9793 9802 1
12577 9793 9805 1
12578 9794 9798 1
12579 9794 9795 1
12580 9794 9797 1
12581 9795 9796 1
12582 9796 9799 1
12583 9796 9834 1
12584 9799 9800 1
12585 9800 9840 1
12586 9800 9801 1
12587 9801 9802 1
12588 9802 9804 1
12589 9802 9803 1
12590 9805 9807 1
12591 9805 9808 1
12592 9805 9806 1
12593 9808 9809 1
12594 9809 9810 1
12595 9809 9843 1
12596 9811 9820 1
12597 9811 9823 1
12598 9812 9816 1
12599 9812 9813 1
12600 9812 9815 1
12601 9813 9814 1
12602 9814 9833 1
12603 9814 9817 1
12604 9814 9852 1
12605 9817 9818 1
12606 9818 9839 1
12607 9818 9858 1
12608 9818 9819 1
12609 9819 9820 1
12610 9820 9822 1
12611 9820 9821 1
12612 9823 9825 1
12613 9823 9826 1
12614 9823 9824 1
12615 9826 9827 1
12616 9827 9842 1
12617 9827 9828 1
12618 9827 9861 1
12619 9829 9838 1
12620 9829 9841 1
12621 9830 9834 1
12622 9830 9831 1
12623 9830 9833 1
12624 9831 9832 1
12625 9832 10157 1
12626 9832 9835 1
12627 9832 10176 1
12628 9835 9836 1
12629 9836 10163 1
12630 9836 9837 1
12631 9836 10182 1
12632 9837 9838 1
12633 9838 9840 1
12634 9838 9839 1
12635 9841 9843 1
12636 9841 9844 1
12637 9841 9842 1
12638 9844 9845 1
12639 9845 10166 1
12640 9845 9846 1
12641 9845 10185 1
12642 9847 9856 1
12643 9847 9859 1
12644 9848 9851 1
12645 9848 9852 1
12646 9848 9849 1
12647 9849 9850 1
12648 9850 10175 1
12649 9850 10230 1
12650 9850 9853 1
12651 9851 9868 1
12652 9853 9854 1
12653 9854 10181 1
12654 9854 10236 1
12655 9854 9855 1
12656 9855 9856 1
12657 9856 9857 1
12658 9856 9858 1
12659 9857 9872 1
12660 9859 9860 1
12661 9859 9861 1
12662 9859 9862 1
12663 9860 9881 1
12664 9862 9863 1
12665 9863 10184 1
12666 9863 10239 1
12667 9863 9864 1
12668 9865 9874 1
12669 9865 9877 1
12670 9866 9869 1
12671 9866 9867 1
12672 9866 9870 1
12673 9867 9868 1
12674 9868 9906 1
12675 9868 9871 1
12676 9871 9872 1
12677 9872 9912 1
12678 9872 9873 1
12679 9873 9874 1
12680 9874 9875 1
12681 9874 9876 1
12682 9877 9878 1
12683 9877 9880 1
12684 9877 9879 1
12685 9880 9881 1
12686 9881 9915 1
12687 9881 9882 1
12688 9883 9892 1
12689 9883 9895 1
12690 9884 9887 1
12691 9884 9885 1
12692 9884 9888 1
12693 9885 9886 1
12694 9886 9924 1
12695 9886 9889 1
12696 9886 9905 1
12697 9889 9890 1
12698 9890 9930 1
12699 9890 9911 1
12700 9890 9891 1
12701 9891 9892 1
12702 9892 9893 1
12703 9892 9894 1
12704 9895 9896 1
12705 9895 9898 1
12706 9895 9897 1
12707 9898 9899 1
12708 9899 9933 1
12709 9899 9900 1
12710 9899 9914 1
12711 9901 9910 1
12712 9901 9913 1
12713 9902 9905 1
12714 9902 9903 1
12715 9902 9906 1
12716 9903 9904 1
12717 9904 10248 1
12718 9904 9907 1
12719 9904 10229 1
12720 9907 9908 1
12721 9908 10254 1
12722 9908 9909 1
12723 9908 10235 1
12724 9909 9910 1
12725 9910 9911 1
12726 9910 9912 1
12727 9913 9914 1
12728 9913 9916 1
12729 9913 9915 1
12730 9916 9917 1
12731 9917 10257 1
12732 9917 9918 1
12733 9917 10238 1
12734 9919 9928 1
12735 9919 9931 1
12736 9920 9923 1
12737 9920 9921 1
12738 9920 9924 1
12739 9921 9922 1
12740 9922 10302 1
12741 9922 9925 1
12742 9922 10247 1
12743 9923 9940 1
12744 9925 9926 1
12745 9926 10308 1
12746 9926 9927 1
12747 9926 10253 1
12748 9927 9928 1
12749 9928 9929 1
12750 9928 9930 1
12751 9929 9944 1
12752 9931 9932 1
12753 9931 9934 1
12754 9931 9933 1
12755 9932 9953 1
12756 9934 9935 1
12757 9935 10311 1
12758 9935 9936 1
12759 9935 10256 1
12760 9937 9946 1
12761 9937 9949 1
12762 9938 9941 1
12763 9938 9939 1
12764 9938 9942 1
12765 9939 9940 1
12766 9940 9978 1
12767 9940 9943 1
12768 9943 9944 1
12769 9944 9984 1
12770 9944 9945 1
12771 9945 9946 1
12772 9946 9947 1
12773 9946 9948 1
12774 9949 9950 1
12775 9949 9952 1
12776 9949 9951 1
12777 9952 9953 1
12778 9953 9987 1
12779 9953 9954 1
12780 9955 9964 1
12781 9955 9967 1
12782 9956 9959 1
12783 9956 9957 1
12784 9956 9960 1
12785 9957 9958 1
12786 9958 9996 1
12787 9958 9961 1
12788 9958 9977 1
12789 9961 9962 1
12790 9962 10002 1
12791 9962 9983 1
12792 9962 9963 1
12793 9963 9964 1
12794 9964 9965 1
12795 9964 9966 1
12796 9967 9968 1
12797 9967 9970 1
12798 9967 9969 1
12799 9970 9971 1
12800 9971 10005 1
12801 9971 9972 1
12802 9971 9986 1
12803 9973 9982 1
12804 9973 9985 1
12805 9974 9977 1
12806 9974 9975 1
12807 9974 9978 1
12808 9975 9976 1
12809 9976 10320 1
12810 9976 9979 1
12811 9976 10301 1
12812 9979 9980 1
12813 9980 10326 1
12814 9980 9981 1
12815 9980 10307 1
12816 9981 9982 1
12817 9982 9983 1
12818 9982 9984 1
12819 9985 9986 1
12820 9985 9988 1
12821 9985 9987 1
12822 9988 9989 1
12823 9989 10329 1
12824 9989 9990 1
12825 9989 10310 1
12826 9991 10000 1
12827 9991 10003 1
12828 9992 9996 1
12829 9992 9993 1
12830 9992 9995 1
12831 9993 9994 1
12832 9994 10319 1
12833 9994 9997 1
12834 9994 10374 1
12835 9995 10012 1
12836 9997 9998 1
12837 9998 10325 1
12838 9998 9999 1
12839 9998 10380 1
12840 9999 10000 1
12841 10000 10002 1
12842 10000 10001 1
12843 10001 10016 1
12844 10003 10005 1
12845 10003 10006 1
12846 10003 10004 1
12847 10004 10025 1
12848 10006 10007 1
12849 10007 10328 1
12850 10007 10008 1
12851 10007 10383 1
12852 10009 10018 1
12853 10009 10021 1
12854 10010 10014 1
12855 10010 10011 1
12856 10010 10013 1
12857 10011 10012 1
12858 10012 10015 1
12859 10012 10050 1
12860 10015 10016 1
12861 10016 10056 1
12862 10016 10017 1
12863 10017 10018 1
12864 10018 10020 1
12865 10018 10019 1
12866 10021 10023 1
12867 10021 10024 1
12868 10021 10022 1
12869 10024 10025 1
12870 10025 10026 1
12871 10025 10059 1
12872 10027 10036 1
12873 10027 10039 1
12874 10028 10032 1
12875 10028 10029 1
12876 10028 10031 1
12877 10029 10030 1
12878 10030 10049 1
12879 10030 10033 1
12880 10030 10068 1
12881 10033 10034 1
12882 10034 10055 1
12883 10034 10074 1
12884 10034 10035 1
12885 10035 10036 1
12886 10036 10038 1
12887 10036 10037 1
12888 10039 10041 1
12889 10039 10042 1
12890 10039 10040 1
12891 10042 10043 1
12892 10043 10058 1
12893 10043 10044 1
12894 10043 10077 1
12895 10045 10054 1
12896 10045 10057 1
12897 10046 10050 1
12898 10046 10047 1
12899 10046 10049 1
12900 10047 10048 1
12901 10048 10373 1
12902 10048 10051 1
12903 10048 10392 1
12904 10051 10052 1
12905 10052 10379 1
12906 10052 10053 1
12907 10052 10398 1
12908 10053 10054 1
12909 10054 10056 1
12910 10054 10055 1
12911 10057 10059 1
12912 10057 10060 1
12913 10057 10058 1
12914 10060 10061 1
12915 10061 10382 1
12916 10061 10062 1
12917 10061 10401 1
12918 10063 10072 1
12919 10063 10075 1
12920 10064 10068 1
12921 10064 10065 1
12922 10064 10067 1
12923 10065 10066 1
12924 10066 10391 1
12925 10066 10069 1
12926 10066 10086 1
12927 10069 10070 1
12928 10070 10397 1
12929 10070 10071 1
12930 10070 10092 1
12931 10071 10072 1
12932 10072 10074 1
12933 10072 10073 1
12934 10075 10077 1
12935 10075 10078 1
12936 10075 10076 1
12937 10078 10079 1
12938 10079 10400 1
12939 10079 10080 1
12940 10079 10095 1
12941 10081 10090 1
12942 10081 10093 1
12943 10082 10083 1
12944 10082 10085 1
12945 10082 10086 1
12946 10083 10084 1
12947 10084 10122 1
12948 10084 10087 1
12949 10084 10427 1
12950 10087 10088 1
12951 10088 10128 1
12952 10088 10089 1
12953 10088 10433 1
12954 10089 10090 1
12955 10090 10091 1
12956 10090 10092 1
12957 10093 10096 1
12958 10093 10094 1
12959 10093 10095 1
12960 10096 10097 1
12961 10097 10131 1
12962 10097 10098 1
12963 10097 10436 1
12964 10099 10108 1
12965 10099 10111 1
12966 10100 10101 1
12967 10100 10104 1
12968 10100 10103 1
12969 10101 10102 1
12970 10102 10121 1
12971 10102 10140 1
12972 10102 10105 1
12973 10105 10106 1
12974 10106 10127 1
12975 10106 10146 1
12976 10106 10107 1
12977 10107 10108 1
12978 10108 10110 1
12979 10108 10109 1
12980 10111 10114 1
12981 10111 10113 1
12982 10111 10112 1
12983 10114 10115 1
12984 10115 10130 1
12985 10115 10149 1
12986 10115 10116 1
12987 10117 10126 1
12988 10117 10129 1
12989 10118 10119 1
12990 10118 10121 1
12991 10118 10122 1
12992 10119 10120 1
12993 10120 10464 1
12994 10120 10445 1
12995 10120 10123 1
12996 10123 10124 1
12997 10124 10125 1
12998 10124 10470 1
12999 10124 10451 1
13000 10125 10126 1
13001 10126 10127 1
13002 10126 10128 1
13003 10129 10132 1
13004 10129 10130 1
13005 10129 10131 1
13006 10132 10133 1
13007 10133 10473 1
13008 10133 10454 1
13009 10133 10134 1
13010 10135 10144 1
13011 10135 10147 1
13012 10136 10137 1
13013 10136 10139 1
13014 10136 10140 1
13015 10137 10138 1
13016 10138 10518 1
13017 10138 10463 1
13018 10138 10141 1
13019 10139 10156 1
13020 10141 10142 1
13021 10142 10143 1
13022 10142 10524 1
13023 10142 10469 1
13024 10143 10144 1
13025 10144 10145 1
13026 10144 10146 1
13027 10145 10160 1
13028 10147 10150 1
13029 10147 10148 1
13030 10147 10149 1
13031 10148 10169 1
13032 10150 10151 1
13033 10151 10527 1
13034 10151 10472 1
13035 10151 10152 1
13036 10153 10162 1
13037 10153 10165 1
13038 10154 10158 1
13039 10154 10155 1
13040 10154 10157 1
13041 10155 10156 1
13042 10156 10159 1
13043 10156 10194 1
13044 10159 10160 1
13045 10160 10200 1
13046 10160 10161 1
13047 10161 10162 1
13048 10162 10164 1
13049 10162 10163 1
13050 10165 10167 1
13051 10165 10168 1
13052 10165 10166 1
13053 10168 10169 1
13054 10169 10170 1
13055 10169 10203 1
13056 10171 10180 1
13057 10171 10183 1
13058 10172 10176 1
13059 10172 10173 1
13060 10172 10175 1
13061 10173 10174 1
13062 10174 10193 1
13063 10174 10177 1
13064 10174 10212 1
13065 10177 10178 1
13066 10178 10199 1
13067 10178 10218 1
13068 10178 10179 1
13069 10179 10180 1
13070 10180 10182 1
13071 10180 10181 1
13072 10183 10185 1
13073 10183 10186 1
13074 10183 10184 1
13075 10186 10187 1
13076 10187 10202 1
13077 10187 10188 1
13078 10187 10221 1
13079 10189 10198 1
13080 10189 10201 1
13081 10190 10194 1
13082 10190 10191 1
13083 10190 10193 1
13084 10191 10192 1
13085 10192 10517 1
13086 10192 10195 1
13087 10192 10536 1
13088 10195 10196 1
13089 10196 10523 1
13090 10196 10197 1
13091 10196 10542 1
13092 10197 10198 1
13093 10198 10200 1
13094 10198 10199 1
13095 10201 10203 1
13096 10201 10204 1
13097 10201 10202 1
13098 10204 10205 1
13099 10205 10526 1
13100 10205 10206 1
13101 10205 10545 1
13102 10207 10216 1
13103 10207 10219 1
13104 10208 10211 1
13105 10208 10212 1
13106 10208 10209 1
13107 10209 10210 1
13108 10210 10535 1
13109 10210 10590 1
13110 10210 10213 1
13111 10211 10228 1
13112 10213 10214 1
13113 10214 10541 1
13114 10214 10596 1
13115 10214 10215 1
13116 10215 10216 1
13117 10216 10217 1
13118 10216 10218 1
13119 10217 10232 1
13120 10219 10220 1
13121 10219 10221 1
13122 10219 10222 1
13123 10220 10241 1
13124 10222 10223 1
13125 10223 10544 1
13126 10223 10599 1
13127 10223 10224 1
13128 10225 10234 1
13129 10225 10237 1
13130 10226 10229 1
13131 10226 10227 1
13132 10226 10230 1
13133 10227 10228 1
13134 10228 10266 1
13135 10228 10231 1
13136 10231 10232 1
13137 10232 10272 1
13138 10232 10233 1
13139 10233 10234 1
13140 10234 10235 1
13141 10234 10236 1
13142 10237 10238 1
13143 10237 10240 1
13144 10237 10239 1
13145 10240 10241 1
13146 10241 10275 1
13147 10241 10242 1
13148 10243 10252 1
13149 10243 10255 1
13150 10244 10247 1
13151 10244 10245 1
13152 10244 10248 1
13153 10245 10246 1
13154 10246 10284 1
13155 10246 10249 1
13156 10246 10265 1
13157 10249 10250 1
13158 10250 10290 1
13159 10250 10271 1
13160 10250 10251 1
13161 10251 10252 1
13162 10252 10253 1
13163 10252 10254 1
13164 10255 10256 1
13165 10255 10258 1
13166 10255 10257 1
13167 10258 10259 1
13168 10259 10293 1
13169 10259 10260 1
13170 10259 10274 1
13171 10261 10270 1
13172 10261 10273 1
13173 10262 10265 1
13174 10262 10263 1
13175 10262 10266 1
13176 10263 10264 1
13177 10264 10608 1
13178 10264 10267 1
13179 10264 10589 1
13180 10267 10268 1
13181 10268 10614 1
13182 10268 10269 1
13183 10268 10595 1
13184 10269 10270 1
13185 10270 10271 1
13186 10270 10272 1
13187 10273 10274 1
13188 10273 10276 1
13189 10273 10275 1
13190 10276 10277 1
13191 10277 10617 1
13192 10277 10278 1
13193 10277 10598 1
13194 10279 10288 1
13195 10279 10291 1
13196 10280 10283 1
13197 10280 10281 1
13198 10280 10284 1
13199 10281 10282 1
13200 10282 10662 1
13201 10282 10285 1
13202 10282 10607 1
13203 10283 10300 1
13204 10285 10286 1
13205 10286 10668 1
13206 10286 10287 1
13207 10286 10613 1
13208 10287 10288 1
13209 10288 10289 1
13210 10288 10290 1
13211 10289 10304 1
13212 10291 10292 1
13213 10291 10294 1
13214 10291 10293 1
13215 10292 10313 1
13216 10294 10295 1
13217 10295 10671 1
13218 10295 10296 1
13219 10295 10616 1
13220 10297 10306 1
13221 10297 10309 1
13222 10298 10301 1
13223 10298 10299 1
13224 10298 10302 1
13225 10299 10300 1
13226 10300 10338 1
13227 10300 10303 1
13228 10303 10304 1
13229 10304 10344 1
13230 10304 10305 1
13231 10305 10306 1
13232 10306 10307 1
13233 10306 10308 1
13234 10309 10310 1
13235 10309 10312 1
13236 10309 10311 1
13237 10312 10313 1
13238 10313 10347 1
13239 10313 10314 1
13240 10315 10324 1
13241 10315 10327 1
13242 10316 10319 1
13243 10316 10317 1
13244 10316 10320 1
13245 10317 10318 1
13246 10318 10356 1
13247 10318 10321 1
13248 10318 10337 1
13249 10321 10322 1
13250 10322 10362 1
13251 10322 10343 1
13252 10322 10323 1
13253 10323 10324 1
13254 10324 10325 1
13255 10324 10326 1
13256 10327 10328 1
13257 10327 10330 1
13258 10327 10329 1
13259 10330 10331 1
13260 10331 10365 1
13261 10331 10332 1
13262 10331 10346 1
13263 10333 10342 1
13264 10333 10345 1
13265 10334 10337 1
13266 10334 10335 1
13267 10334 10338 1
13268 10335 10336 1
13269 10336 10680 1
13270 10336 10339 1
13271 10336 10661 1
13272 10339 10340 1
13273 10340 10686 1
13274 10340 10341 1
13275 10340 10667 1
13276 10341 10342 1
13277 10342 10343 1
13278 10342 10344 1
13279 10345 10346 1
13280 10345 10348 1
13281 10345 10347 1
13282 10348 10349 1
13283 10349 10689 1
13284 10349 10350 1
13285 10349 10670 1
13286 10351 10360 1
13287 10351 10363 1
13288 10352 10356 1
13289 10352 10353 1
13290 10352 10355 1
13291 10353 10354 1
13292 10354 10679 1
13293 10354 10357 1
13294 10354 10734 1
13295 10355 10372 1
13296 10357 10358 1
13297 10358 10685 1
13298 10358 10359 1
13299 10358 10740 1
13300 10359 10360 1
13301 10360 10362 1
13302 10360 10361 1
13303 10361 10376 1
13304 10363 10365 1
13305 10363 10366 1
13306 10363 10364 1
13307 10364 10385 1
13308 10366 10367 1
13309 10367 10688 1
13310 10367 10368 1
13311 10367 10743 1
13312 10369 10378 1
13313 10369 10381 1
13314 10370 10374 1
13315 10370 10371 1
13316 10370 10373 1
13317 10371 10372 1
13318 10372 10375 1
13319 10372 10410 1
13320 10375 10376 1
13321 10376 10416 1
13322 10376 10377 1
13323 10377 10378 1
13324 10378 10380 1
13325 10378 10379 1
13326 10381 10383 1
13327 10381 10384 1
13328 10381 10382 1
13329 10384 10385 1
13330 10385 10386 1
13331 10385 10419 1
13332 10387 10396 1
13333 10387 10399 1
13334 10388 10392 1
13335 10388 10389 1
13336 10388 10391 1
13337 10389 10390 1
13338 10390 10409 1
13339 10390 10393 1
13340 10390 10428 1
13341 10393 10394 1
13342 10394 10415 1
13343 10394 10434 1
13344 10394 10395 1
13345 10395 10396 1
13346 10396 10398 1
13347 10396 10397 1
13348 10399 10401 1
13349 10399 10402 1
13350 10399 10400 1
13351 10402 10403 1
13352 10403 10418 1
13353 10403 10404 1
13354 10403 10437 1
13355 10405 10414 1
13356 10405 10417 1
13357 10406 10410 1
13358 10406 10407 1
13359 10406 10409 1
13360 10407 10408 1
13361 10408 10733 1
13362 10408 10411 1
13363 10408 10752 1
13364 10411 10412 1
13365 10412 10739 1
13366 10412 10413 1
13367 10412 10758 1
13368 10413 10414 1
13369 10414 10416 1
13370 10414 10415 1
13371 10417 10419 1
13372 10417 10420 1
13373 10417 10418 1
13374 10420 10421 1
13375 10421 10742 1
13376 10421 10422 1
13377 10421 10761 1
13378 10423 10432 1
13379 10423 10435 1
13380 10424 10428 1
13381 10424 10425 1
13382 10424 10427 1
13383 10425 10426 1
13384 10426 10751 1
13385 10426 10429 1
13386 10426 10446 1
13387 10429 10430 1
13388 10430 10757 1
13389 10430 10431 1
13390 10430 10452 1
13391 10431 10432 1
13392 10432 10434 1
13393 10432 10433 1
13394 10435 10437 1
13395 10435 10438 1
13396 10435 10436 1
13397 10438 10439 1
13398 10439 10760 1
13399 10439 10440 1
13400 10439 10455 1
13401 10441 10450 1
13402 10441 10453 1
13403 10442 10445 1
13404 10442 10446 1
13405 10442 10443 1
13406 10443 10444 1
13407 10444 10482 1
13408 10444 10447 1
13409 10444 10787 1
13410 10447 10448 1
13411 10448 10449 1
13412 10448 10488 1
13413 10448 10793 1
13414 10449 10450 1
13415 10450 10451 1
13416 10450 10452 1
13417 10453 10454 1
13418 10453 10455 1
13419 10453 10456 1
13420 10456 10457 1
13421 10457 10491 1
13422 10457 10458 1
13423 10457 10796 1
13424 10459 10468 1
13425 10459 10471 1
13426 10460 10464 1
13427 10460 10463 1
13428 10460 10461 1
13429 10461 10462 1
13430 10462 10481 1
13431 10462 10500 1
13432 10462 10465 1
13433 10465 10466 1
13434 10466 10467 1
13435 10466 10487 1
13436 10466 10506 1
13437 10467 10468 1
13438 10468 10470 1
13439 10468 10469 1
13440 10471 10473 1
13441 10471 10472 1
13442 10471 10474 1
13443 10474 10475 1
13444 10475 10490 1
13445 10475 10509 1
13446 10475 10476 1
13447 10477 10486 1
13448 10477 10489 1
13449 10478 10479 1
13450 10478 10481 1
13451 10478 10482 1
13452 10479 10480 1
13453 10480 10483 1
13454 10483 10484 1
13455 10484 10485 1
13456 10485 10486 1
13457 10486 10487 1
13458 10486 10488 1
13459 10489 10492 1
13460 10489 10490 1
13461 10489 10491 1
13462 10492 10493 1
13463 10493 10494 1
13464 10495 10504 1
13465 10495 10507 1
13466 10496 10497 1
13467 10496 10499 1
13468 10496 10500 1
13469 10497 10498 1
13470 10498 10501 1
13471 10499 10516 1
13472 10501 10502 1
13473 10502 10503 1
13474 10503 10504 1
13475 10504 10505 1
13476 10504 10506 1
13477 10505 10520 1
13478 10507 10510 1
13479 10507 10508 1
13480 10507 10509 1
13481 10508 10529 1
13482 10510 10511 1
13483 10511 10512 1
13484 10513 10522 1
13485 10513 10525 1
13486 10514 10518 1
13487 10514 10517 1
13488 10514 10515 1
13489 10515 10516 1
13490 10516 10519 1
13491 10516 10554 1
13492 10519 10520 1
13493 10520 10521 1
13494 10520 10560 1
13495 10521 10522 1
13496 10522 10524 1
13497 10522 10523 1
13498 10525 10527 1
13499 10525 10526 1
13500 10525 10528 1
13501 10528 10529 1
13502 10529 10530 1
13503 10529 10563 1
13504 10531 10540 1
13505 10531 10543 1
13506 10532 10536 1
13507 10532 10535 1
13508 10532 10533 1
13509 10533 10534 1
13510 10534 10553 1
13511 10534 10537 1
13512 10534 10572 1
13513 10537 10538 1
13514 10538 10559 1
13515 10538 10539 1
13516 10538 10578 1
13517 10539 10540 1
13518 10540 10542 1
13519 10540 10541 1
13520 10543 10545 1
13521 10543 10544 1
13522 10543 10546 1
13523 10546 10547 1
13524 10547 10562 1
13525 10547 10548 1
13526 10547 10581 1
13527 10549 10558 1
13528 10549 10561 1
13529 10550 10554 1
13530 10550 10551 1
13531 10550 10553 1
13532 10551 10552 1
13533 10552 10555 1
13534 10555 10556 1
13535 10556 10557 1
13536 10557 10558 1
13537 10558 10560 1
13538 10558 10559 1
13539 10561 10563 1
13540 10561 10564 1
13541 10561 10562 1
13542 10564 10565 1
13543 10565 10566 1
13544 10567 10576 1
13545 10567 10579 1
13546 10568 10571 1
13547 10568 10572 1
13548 10568 10569 1
13549 10569 10570 1
13550 10570 10573 1
13551 10571 10588 1
13552 10573 10574 1
13553 10574 10575 1
13554 10575 10576 1
13555 10576 10577 1
13556 10576 10578 1
13557 10577 10592 1
13558 10579 10580 1
13559 10579 10581 1
13560 10579 10582 1
13561 10580 10601 1
13562 10582 10583 1
13563 10583 10584 1
13564 10585 10594 1
13565 10585 10597 1
13566 10586 10589 1
13567 10586 10590 1
13568 10586 10587 1
13569 10587 10588 1
13570 10588 10626 1
13571 10588 10591 1
13572 10591 10592 1
13573 10592 10632 1
13574 10592 10593 1
13575 10593 10594 1
13576 10594 10595 1
13577 10594 10596 1
13578 10597 10598 1
13579 10597 10599 1
13580 10597 10600 1
13581 10600 10601 1
13582 10601 10635 1
13583 10601 10602 1
13584 10603 10612 1
13585 10603 10615 1
13586 10604 10607 1
13587 10604 10608 1
13588 10604 10605 1
13589 10605 10606 1
13590 10606 10644 1
13591 10606 10609 1
13592 10606 10625 1
13593 10609 10610 1
13594 10610 10650 1
13595 10610 10611 1
13596 10610 10631 1
13597 10611 10612 1
13598 10612 10613 1
13599 10612 10614 1
13600 10615 10616 1
13601 10615 10617 1
13602 10615 10618 1
13603 10618 10619 1
13604 10619 10653 1
13605 10619 10620 1
13606 10619 10634 1
13607 10621 10630 1
13608 10621 10633 1
13609 10622 10625 1
13610 10622 10623 1
13611 10622 10626 1
13612 10623 10624 1
13613 10624 10627 1
13614 10627 10628 1
13615 10628 10629 1
13616 10629 10630 1
13617 10630 10631 1
13618 10630 10632 1
13619 10633 10634 1
13620 10633 10636 1
13621 10633 10635 1
13622 10636 10637 1
13623 10637 10638 1
13624 10639 10648 1
13625 10639 10651 1
13626 10640 10643 1
13627 10640 10641 1
13628 10640 10644 1
13629 10641 10642 1
13630 10642 10645 1
13631 10643 10660 1
13632 10645 10646 1
13633 10646 10647 1
13634 10647 10648 1
13635 10648 10649 1
13636 10648 10650 1
13637 10649 10664 1
13638 10651 10652 1
13639 10651 10654 1
13640 10651 10653 1
13641 10652 10673 1
13642 10654 10655 1
13643 10655 10656 1
13644 10657 10666 1
13645 10657 10669 1
13646 10658 10661 1
13647 10658 10662 1
13648 10658 10659 1
13649 10659 10660 1
13650 10660 10698 1
13651 10660 10663 1
13652 10663 10664 1
13653 10664 10704 1
13654 10664 10665 1
13655 10665 10666 1
13656 10666 10667 1
13657 10666 10668 1
13658 10669 10670 1
13659 10669 10671 1
13660 10669 10672 1
13661 10672 10673 1
13662 10673 10707 1
13663 10673 10674 1
13664 10675 10684 1
13665 10675 10687 1
13666 10676 10679 1
13667 10676 10680 1
13668 10676 10677 1
13669 10677 10678 1
13670 10678 10716 1
13671 10678 10681 1
13672 10678 10697 1
13673 10681 10682 1
13674 10682 10722 1
13675 10682 10683 1
13676 10682 10703 1
13677 10683 10684 1
13678 10684 10685 1
13679 10684 10686 1
13680 10687 10688 1
13681 10687 10689 1
13682 10687 10690 1
13683 10690 10691 1
13684 10691 10725 1
13685 10691 10692 1
13686 10691 10706 1
13687 10693 10702 1
13688 10693 10705 1
13689 10694 10697 1
13690 10694 10695 1
13691 10694 10698 1
13692 10695 10696 1
13693 10696 10699 1
13694 10699 10700 1
13695 10700 10701 1
13696 10701 10702 1
13697 10702 10703 1
13698 10702 10704 1
13699 10705 10706 1
13700 10705 10708 1
13701 10705 10707 1
13702 10708 10709 1
13703 10709 10710 1
13704 10711 10720 1
13705 10711 10723 1
13706 10712 10716 1
13707 10712 10713 1
13708 10712 10715 1
13709 10713 10714 1
13710 10714 10717 1
13711 10715 10732 1
13712 10717 10718 1
13713 10718 10719 1
13714 10719 10720 1
13715 10720 10722 1
13716 10720 10721 1
13717 10721 10736 1
13718 10723 10725 1
13719 10723 10726 1
13720 10723 10724 1
13721 10724 10745 1
13722 10726 10727 1
13723 10727 10728 1
13724 10729 10738 1
13725 10729 10741 1
13726 10730 10734 1
13727 10730 10733 1
13728 10730 10731 1
13729 10731 10732 1
13730 10732 10735 1
13731 10732 10770 1
13732 10735 10736 1
13733 10736 10737 1
13734 10736 10776 1
13735 10737 10738 1
13736 10738 10740 1
13737 10738 10739 1
13738 10741 10743 1
13739 10741 10742 1
13740 10741 10744 1
13741 10744 10745 1
13742 10745 10746 1
13743 10745 10779 1
13744 10747 10756 1
13745 10747 10759 1
13746 10748 10752 1
13747 10748 10751 1
13748 10748 10749 1
13749 10749 10750 1
13750 10750 10769 1
13751 10750 10753 1
13752 10750 10788 1
13753 10753 10754 1
13754 10754 10775 1
13755 10754 10755 1
13756 10754 10794 1
13757 10755 10756 1
13758 10756 10758 1
13759 10756 10757 1
13760 10759 10761 1
13761 10759 10760 1
13762 10759 10762 1
13763 10762 10763 1
13764 10763 10778 1
13765 10763 10764 1
13766 10763 10797 1
13767 10765 10774 1
13768 10765 10777 1
13769 10766 10770 1
13770 10766 10767 1
13771 10766 10769 1
13772 10767 10768 1
13773 10768 10771 1
13774 10771 10772 1
13775 10772 10773 1
13776 10773 10774 1
13777 10774 10776 1
13778 10774 10775 1
13779 10777 10779 1
13780 10777 10780 1
13781 10777 10778 1
13782 10780 10781 1
13783 10781 10782 1
13784 10783 10792 1
13785 10783 10795 1
13786 10784 10788 1
13787 10784 10785 1
13788 10784 10787 1
13789 10785 10786 1
13790 10786 10789 1
13791 10789 10790 1
13792 10790 10791 1
13793 10791 10792 1
13794 10792 10794 1
13795 10792 10793 1
13796 10795 10797 1
13797 10795 10798 1
13798 10795 10796 1
13799 10798 10799 1
13800 10799 10800 1
13801 10801 10802 1
13802 10801 10803 1
13803 10804 10805 1
13804 10804 10806 1
13805 10801 10804 1
13806 10807 10808 1
13807 10807 10809 1
13808 10804 10807 1
13809 10810 10811 1
13810 10810 10812 1
13811 10807 10810 1
13812 10813 10814 1
13813 10813 10815 1
13814 10810 10813 1
13815 10816 10817 1
13816 10816 10818 1
13817 10813 10816 1
13818 10819 10820 1
13819 10819 10821 1
13820 10816 10819 1
13821 10822 10823 1
13822 10822 10824 1
13823 10819 10822 1
13824 10825 10826 1
13825 10825 10827 1
13826 10822 10825 1
13827 10825 10828 1
13828 10828 10829 1
13829 10828 10830 1
13830 10828 10831 1
13831 10801 10832 1
13832 10832 10833 1
13833 10832 10835 1
13834 10833 10834 1
13835 10835 10836 1
13836 7200 10832 1
13837 10837 10838 1
13838 10837 10839 1
13839 10840 10841 1
13840 10840 10842 1
13841 10837 10840 1
13842 10843 10844 1
13843 10843 10845 1
13844 10840 10843 1
13845 10846 10847 1
13846 10846 10848 1
13847 10843 10846 1
13848 10849 10850 1
13849 10849 10851 1
13850 10846 10849 1
13851 10852 10853 1
13852 10852 10854 1
13853 10849 10852 1
13854 10855 10856 1
13855 10855 10857 1
13856 10852 10855 1
13857 10858 10859 1
13858 10858 10860 1
13859 10855 10858 1
13860 10861 10862 1
13861 10861 10863 1
13862 10858 10861 1
13863 10861 10864 1
13864 10864 10865 1
13865 10864 10866 1
13866 10864 10867 1
13867 10837 10868 1
13868 10868 10869 1
13869 10868 10871 1
13870 10869 10870 1
13871 10871 10872 1
13872 6120 10868 1
13873 10873 10874 1
13874 10873 10875 1
13875 10876 10877 1
13876 10876 10878 1
13877 10873 10876 1
13878 10879 10880 1
13879 10879 10881 1
13880 10876 10879 1
13881 10882 10883 1
13882 10882 10884 1
13883 10879 10882 1
13884 10885 10886 1
13885 10885 10887 1
13886 10882 10885 1
13887 10888 10889 1
13888 10888 10890 1
13889 10885 10888 1
13890 10891 10892 1
13891 10891 10893 1
13892 10888 10891 1
13893 10894 10895 1
13894 10894 10896 1
13895 10891 10894 1
13896 10897 10898 1
13897 10897 10899 1
13898 10894 10897 1
13899 10897 10900 1
13900 10900 10901 1
13901 10900 10902 1
13902 10900 10903 1
13903 10873 10904 1
13904 10904 10905 1
13905 10904 10907 1
13906 10905 10906 1
13907 10907 10908 1
13908 1098 10904 1
13909 10909 10910 1
13910 10909 10911 1
13911 10912 10913 1
13912 10912 10914 1
13913 10909 10912 1
13914 10915 10916 1
13915 10915 10917 1
13916 10912 10915 1
13917 10918 10919 1
13918 10918 10920 1
13919 10915 10918 1
13920 10921 10922 1
13921 10921 10923 1
13922 10918 10921 1
13923 10924 10925 1
13924 10924 10926 1
13925 10921 10924 1
13926 10927 10928 1
13927 10927 10929 1
13928 10924 10927 1
13929 10930 10931 1
13930 10930 10932 1
13931 10927 10930 1
13932 10933 10934 1
13933 10933 10935 1
13934 10930 10933 1
13935 10933 10936 1
13936 10936 10937 1
13937 10936 10938 1
13938 10936 10939 1
13939 10909 10940 1
13940 10940 10941 1
13941 10940 10943 1
13942 10941 10942 1
13943 10943 10944 1
13944 1818 10940 1
13945 10945 10946 1
13946 10945 10947 1
13947 10948 10949 1
13948 10948 10950 1
13949 10945 10948 1
13950 10951 10952 1
13951 10951 10953 1
13952 10948 10951 1
13953 10954 10955 1
13954 10954 10956 1
13955 10951 10954 1
13956 10957 10958 1
13957 10957 10959 1
13958 10954 10957 1
13959 10960 10961 1
13960 10960 10962 1
13961 10957 10960 1
13962 10963 10964 1
13963 10963 10965 1
13964 10960 10963 1
13965 10966 10967 1
13966 10966 10968 1
13967 10963 10966 1
13968 10969 10970 1
13969 10969 10971 1
13970 10966 10969 1
13971 10969 10972 1
13972 10972 10973 1
13973 10972 10974 1
13974 10972 10975 1
13975 10945 10976 1
13976 10976 10977 1
13977 10976 10979 1
13978 10977 10978 1
13979 10979 10980 1
13980 2538 10976 1
13981 10981 10982 1
13982 10981 10983 1
13983 10984 10985 1
13984 10984 10986 1
13985 10981 10984 1
13986 10987 10988 1
13987 10987 10989 1
13988 10984 10987 1
13989 10990 10991 1
13990 10990 10992 1
13991 10987 10990 1
13992 10993 10994 1
13993 10993 10995 1
13994 10990 10993 1
13995 10996 10997 1
13996 10996 10998 1
13997 10993 10996 1
13998 10999 11000 1
13999 10999 11001 1
14000 10996 10999 1
14001 11002 11003 1
14002 11002 11004 1
14003 10999 11002 1
14004 11005 11006 1
14005 11005 11007 1
14006 11002 11005 1
14007 11005 11008 1
14008 11008 11009 1
14009 11008 11010 1
14010 11008 11011 1
14011 10981 11012 1
14012 11012 11013 1
14013 11012 11015 1
14014 11013 11014 1
14015 11015 11016 1
14016 3258 11012 1
14017 11017 11018 1
14018 11017 11019 1
14019 11020 11021 1
14020 11020 11022 1
14021 11017 11020 1
14022 11023 11024 1
14023 11023 11025 1
14024 11020 11023 1
14025 11026 11027 1
14026 11026 11028 1
14027 11023 11026 1
14028 11029 11030 1
14029 11029 11031 1
14030 11026 11029 1
14031 11032 11033 1
14032 11032 11034 1
14033 11029 11032 1
14034 11035 11036 1
14035 11035 11037 1
14036 11032 11035 1
14037 11038 11039 1
14038 11038 11040 1
14039 11035 11038 1
14040 11041 11042 1
14041 11041 11043 1
14042 11038 11041 1
14043 11041 11044 1
14044 11044 11045 1
14045 11044 11046 1
14046 11044 11047 1
14047 11017 11048 1
14048 11048 11049 1
14049 11048 11051 1
14050 11049 11050 1
14051 11051 11052 1
14052 9360 11048 1
14053 11053 11054 1
14054 11053 11055 1
14055 11056 11057 1
14056 11056 11058 1
14057 11053 11056 1
14058 11059 11060 1
14059 11059 11061 1
14060 11056 11059 1
14061 11062 11063 1
14062 11062 11064 1
14063 11059 11062 1
14064 11065 11066 1
14065 11065 11067 1
14066 11062 11065 1
14067 11068 11069 1
14068 11068 11070 1
14069 11065 11068 1
14070 11071 11072 1
14071 11071 11073 1
14072 11068 11071 1
14073 11074 11075 1
14074 11074 11076 1
14075 11071 11074 1
14076 11077 11078 1
14077 11077 11079 1
14078 11074 11077 1
14079 11077 11080 1
14080 11080 11081 1
14081 11080 11082 1
14082 11080 11083 1
14083 11053 11084 1
14084 11084 11085 1
14085 11084 11087 1
14086 11085 11086 1
14087 11087 11088 1
14088 10080 11084 1
14089 11089 11090 1
14090 11089 11091 1
14091 11092 11093 1
14092 11092 11094 1
14093 11089 11092 1
14094 11095 11096 1
14095 11095 11097 1
14096 11092 11095 1
14097 11098 11099 1
14098 11098 11100 1
14099 11095 11098 1
14100 11101 11102 1
14101 11101 11103 1
14102 11098 11101 1
14103 11104 11105 1
14104 11104 11106 1
14105 11101 11104 1
14106 11107 11108 1
14107 11107 11109 1
14108 11104 11107 1
14109 11110 11111 1
14110 11110 11112 1
14111 11107 11110 1
14112 11113 11114 1
14113 11113 11115 1
14114 11110 11113 1
14115 11113 11116 1
14116 11116 11117 1
14117 11116 11118 1
14118 11116 11119 1
14119 11089 11120 1
14120 11120 11121 1
14121 11120 11123 1
14122 11121 11122 1
14123 11123 11124 1
14124 1566 11120 1
14125 11125 11126 1
14126 11125 11127 1
14127 11128 11129 1
14128 11128 11130 1
14129 11125 11128 1
14130 11131 11132 1
14131 11131 11133 1
14132 11128 11131 1
14133 11134 11135 1
14134 11134 11136 1
14135 11131 11134 1
14136 11137 11138 1
14137 11137 11139 1
14138 11134 11137 1
14139 11140 11141 1
14140 11140 11142 1
14141 11137 11140 1
14142 11143 11144 1
14143 11143 11145 1
14144 11140 11143 1
14145 11146 11147 1
14146 11146 11148 1
14147 11143 11146 1
14148 11149 11150 1
14149 11149 11151 1
14150 11146 11149 1
14151 11149 11152 1
14152 11152 11153 1
14153 11152 11154 1
14154 11152 11155 1
14155 11125 11156 1
14156 11156 11157 1
14157 11156 11159 1
14158 11157 11158 1
14159 11159 11160 1
14160 486 11156 1
14161 11161 11162 1
14162 11161 11163 1
14163 11164 11165 1
14164 11164 11166 1
14165 11161 11164 1
14166 11167 11168 1
14167 11167 11169 1
14168 11164 11167 1
14169 11170 11171 1
14170 11170 11172 1
14171 11167 11170 1
14172 11173 11174 1
14173 11173 11175 1
14174 11170 11173 1
14175 11176 11177 1
14176 11176 11178 1
14177 11173 11176 1
14178 11179 11180 1
14179 11179 11181 1
14180 11176 11179 1
14181 11182 11183 1
14182 11182 11184 1
14183 11179 11182 1
14184 11185 11186 1
14185 11185 11187 1
14186 11182 11185 1
14187 11185 11188 1
14188 11188 11189 1
14189 11188 11190 1
14190 11188 11191 1
14191 11161 11192 1
14192 11192 11193 1
14193 11192 11195 1
14194 11193 11194 1
14195 11195 11196 1
14196 1170 11192 1
14197 11197 11198 1
14198 11197 11199 1
14199 11200 11201 1
14200 11200 11202 1
14201 11197 11200 1
14202 11203 11204 1
14203 11203 11205 1
14204 11200 11203 1
14205 11206 11207 1
14206 11206 11208 1
14207 11203 11206 1
14208 11209 11210 1
14209 11209 11211 1
14210 11206 11209 1
14211 11212 11213 1
14212 11212 11214 1
14213 11209 11212 1
14214 11215 11216 1
14215 11215 11217 1
14216 11212 11215 1
14217 11218 11219 1
14218 11218 11220 1
14219 11215 11218 1
14220 11221 11222 1
14221 11221 11223 1
14222 11218 11221 1
14223 11221 11224 1
14224 11224 11225 1
14225 11224 11226 1
14226 11224 11227 1
14227 11197 11228 1
14228 11228 11229 1
14229 11228 11231 1
14230 11229 11230 1
14231 11231 11232 1
14232 1890 11228 1
14233 11233 11234 1
14234 11233 11235 1
14235 11236 11237 1
14236 11236 11238 1
14237 11233 11236 1
14238 11239 11240 1
14239 11239 11241 1
14240 11236 11239 1
14241 11242 11243 1
14242 11242 11244 1
14243 11239 11242 1
14244 11245 11246 1
14245 11245 11247 1
14246 11242 11245 1
14247 11248 11249 1
14248 11248 11250 1
14249 11245 11248 1
14250 11251 11252 1
14251 11251 11253 1
14252 11248 11251 1
14253 11254 11255 1
14254 11254 11256 1
14255 11251 11254 1
14256 11257 11258 1
14257 11257 11259 1
14258 11254 11257 1
14259 11257 11260 1
14260 11260 11261 1
14261 11260 11262 1
14262 11260 11263 1
14263 11233 11264 1
14264 11264 11265 1
14265 11264 11267 1
14266 11265 11266 1
14267 11267 11268 1
14268 2610 11264 1
14269 11269 11270 1
14270 11269 11271 1
14271 11272 11273 1
14272 11272 11274 1
14273 11269 11272 1
14274 11275 11276 1
14275 11275 11277 1
14276 11272 11275 1
14277 11278 11279 1
14278 11278 11280 1
14279 11275 11278 1
14280 11281 11282 1
14281 11281 11283 1
14282 11278 11281 1
14283 11284 11285 1
14284 11284 11286 1
14285 11281 11284 1
14286 11287 11288 1
14287 11287 11289 1
14288 11284 11287 1
14289 11290 11291 1
14290 11290 11292 1
14291 11287 11290 1
14292 11293 11294 1
14293 11293 11295 1
14294 11290 11293 1
14295 11293 11296 1
14296 11296 11297 1
14297 11296 11298 1
14298 11296 11299 1
14299 11269 11300 1
14300 11300 11301 1
14301 11300 11303 1
14302 11301 11302 1
14303 11303 11304 1
14304 3330 11300 1
14305 11305 11306 1
14306 11305 11307 1
14307 11308 11309 1
14308 11308 11310 1
14309 11305 11308 1
14310 11311 11312 1
14311 11311 11313 1
14312 11308 11311 1
14313 11314 11315 1
14314 11314 11316 1
14315 11311 11314 1
14316 11317 11318 1
14317 11317 11319 1
14318 11314 11317 1
14319 11320 11321 1
14320 11320 11322 1
14321 11317 11320 1
14322 11323 11324 1
14323 11323 11325 1
14324 11320 11323 1
14325 11326 11327 1
14326 11326 11328 1
14327 11323 11326 1
14328 11329 11330 1
14329 11329 11331 1
14330 11326 11329 1
14331 11329 11332 1
14332 11332 11333 1
14333 11332 11334 1
14334 11332 11335 1
14335 11305 11336 1
14336 11336 11337 1
14337 11336 11339 1
14338 11337 11338 1
14339 11339 11340 1
14340 3726 11336 1
14341 11341 11342 1
14342 11341 11343 1
14343 11344 11345 1
14344 11344 11346 1
14345 11341 11344 1
14346 11347 11348 1
14347 11347 11349 1
14348 11344 11347 1
14349 11350 11351 1
14350 11350 11352 1
14351 11347 11350 1
14352 11353 11354 1
14353 11353 11355 1
14354 11350 11353 1
14355 11356 11357 1
14356 11356 11358 1
14357 11353 11356 1
14358 11359 11360 1
14359 11359 11361 1
14360 11356 11359 1
14361 11362 11363 1
14362 11362 11364 1
14363 11359 11362 1
14364 11365 11366 1
14365 11365 11367 1
14366 11362 11365 1
14367 11365 11368 1
14368 11368 11369 1
14369 11368 11370 1
14370 11368 11371 1
14371 11341 11372 1
14372 11372 11373 1
14373 11372 11375 1
14374 11373 11374 1
14375 11375 11376 1
14376 4446 11372 1
14377 11377 11378 1
14378 11377 11379 1
14379 11380 11381 1
14380 11380 11382 1
14381 11377 11380 1
14382 11383 11384 1
14383 11383 11385 1
14384 11380 11383 1
14385 11386 11387 1
14386 11386 11388 1
14387 11383 11386 1
14388 11389 11390 1
14389 11389 11391 1
14390 11386 11389 1
14391 11392 11393 1
14392 11392 11394 1
14393 11389 11392 1
14394 11395 11396 1
14395 11395 11397 1
14396 11392 11395 1
14397 11398 11399 1
14398 11398 11400 1
14399 11395 11398 1
14400 11401 11402 1
14401 11401 11403 1
14402 11398 11401 1
14403 11401 11404 1
14404 11404 11405 1
14405 11404 11406 1
14406 11404 11407 1
14407 11377 11408 1
14408 11408 11409 1
14409 11408 11411 1
14410 11409 11410 1
14411 11411 11412 1
14412 1638 11408 1
14413 11413 11414 1
14414 11413 11415 1
14415 11416 11417 1
14416 11416 11418 1
14417 11413 11416 1
14418 11419 11420 1
14419 11419 11421 1
14420 11416 11419 1
14421 11422 11423 1
14422 11422 11424 1
14423 11419 11422 1
14424 11425 11426 1
14425 11425 11427 1
14426 11422 11425 1
14427 11428 11429 1
14428 11428 11430 1
14429 11425 11428 1
14430 11431 11432 1
14431 11431 11433 1
14432 11428 11431 1
14433 11434 11435 1
14434 11434 11436 1
14435 11431 11434 1
14436 11437 11438 1
14437 11437 11439 1
14438 11434 11437 1
14439 11437 11440 1
14440 11440 11441 1
14441 11440 11442 1
14442 11440 11443 1
14443 11413 11444 1
14444 11444 11445 1
14445 11444 11447 1
14446 11445 11446 1
14447 11447 11448 1
14448 558 11444 1
14449 11449 11450 1
14450 11449 11451 1
14451 11452 11453 1
14452 11452 11454 1
14453 11449 11452 1
14454 11455 11456 1
14455 11455 11457 1
14456 11452 11455 1
14457 11458 11459 1
14458 11458 11460 1
14459 11455 11458 1
14460 11461 11462 1
14461 11461 11463 1
14462 11458 11461 1
14463 11464 11465 1
14464 11464 11466 1
14465 11461 11464 1
14466 11467 11468 1
14467 11467 11469 1
14468 11464 11467 1
14469 11470 11471 1
14470 11470 11472 1
14471 11467 11470 1
14472 11473 11474 1
14473 11473 11475 1
14474 11470 11473 1
14475 11473 11476 1
14476 11476 11477 1
14477 11476 11478 1
14478 11476 11479 1
14479 11449 11480 1
14480 11480 11481 1
14481 11480 11483 1
14482 11481 11482 1
14483 11483 11484 1
14484 1260 11480 1
14485 11485 11486 1
14486 11485 11487 1
14487 11488 11489 1
14488 11488 11490 1
14489 11485 11488 1
14490 11491 11492 1
14491 11491 11493 1
14492 11488 11491 1
14493 11494 11495 1
14494 11494 11496 1
14495 11491 11494 1
14496 11497 11498 1
14497 11497 11499 1
14498 11494 11497 1
14499 11500 11501 1
14500 11500 11502 1
14501 11497 11500 1
14502 11503 11504 1
14503 11503 11505 1
14504 11500 11503 1
14505 11506 11507 1
14506 11506 11508 1
14507 11503 11506 1
14508 11509 11510 1
14509 11509 11511 1
14510 11506 11509 1
14511 11509 11512 1
14512 11512 11513 1
14513 11512 11514 1
14514 11512 11515 1
14515 11485 11516 1
14516 11516 11517 1
14517 11516 11519 1
14518 11517 11518 1
14519 11519 11520 1
14520 1980 11516 1
14521 11521 11522 1
14522 11521 11523 1
14523 11524 11525 1
14524 11524 11526 1
14525 11521 11524 1
14526 11527 11528 1
14527 11527 11529 1
14528 11524 11527 1
14529 11530 11531 1
14530 11530 11532 1
14531 11527 11530 1
14532 11533 11534 1
14533 11533 11535 1
14534 11530 11533 1
14535 11536 11537 1
14536 11536 11538 1
14537 11533 11536 1
14538 11539 11540 1
14539 11539 11541 1
14540 11536 11539 1
14541 11542 11543 1
14542 11542 11544 1
14543 11539 11542 1
14544 11545 11546 1
14545 11545 11547 1
14546 11542 11545 1
14547 11545 11548 1
14548 11548 11549 1
14549 11548 11550 1
14550 11548 11551 1
14551 11521 11552 1
14552 11552 11553 1
14553 11552 11555 1
14554 11553 11554 1
14555 11555 11556 1
14556 2700 11552 1
14557 11557 11558 1
14558 11557 11559 1
14559 11560 11561 1
14560 11560 11562 1
14561 11557 11560 1
14562 11563 11564 1
14563 11563 11565 1
14564 11560 11563 1
14565 11566 11567 1
14566 11566 11568 1
14567 11563 11566 1
14568 11569 11570 1
14569 11569 11571 1
14570 11566 11569 1
14571 11572 11573 1
14572 11572 11574 1
14573 11569 11572 1
14574 11575 11576 1
14575 11575 11577 1
14576 11572 11575 1
14577 11578 11579 1
14578 11578 11580 1
14579 11575 11578 1
14580 11581 11582 1
14581 11581 11583 1
14582 11578 11581 1
14583 11581 11584 1
14584 11584 11585 1
14585 11584 11586 1
14586 11584 11587 1
14587 11557 11588 1
14588 11588 11589 1
14589 11588 11591 1
14590 11589 11590 1
14591 11591 11592 1
14592 3078 11588 1
14593 11593 11594 1
14594 11593 11595 1
14595 11596 11597 1
14596 11596 11598 1
14597 11593 11596 1
14598 11599 11600 1
14599 11599 11601 1
14600 11596 11599 1
14601 11602 11603 1
14602 11602 11604 1
14603 11599 11602 1
14604 11605 11606 1
14605 11605 11607 1
14606 11602 11605 1
14607 11608 11609 1
14608 11608 11610 1
14609 11605 11608 1
14610 11611 11612 1
14611 11611 11613 1
14612 11608 11611 1
14613 11614 11615 1
14614 11614 11616 1
14615 11611 11614 1
14616 11617 11618 1
14617 11617 11619 1
14618 11614 11617 1
14619 11617 11620 1
14620 11620 11621 1
14621 11620 11622 1
14622 11620 11623 1
14623 11593 11624 1
14624 11624 11625 1
14625 11624 11627 1
14626 11625 11626 1
14627 11627 11628 1
14628 3798 11624 1
14629 11629 11630 1
14630 11629 11631 1
14631 11632 11633 1
14632 11632 11634 1
14633 11629 11632 1
14634 11635 11636 1
14635 11635 11637 1
14636 11632 11635 1
14637 11638 11639 1
14638 11638 11640 1
14639 11635 11638 1
14640 11641 11642 1
14641 11641 11643 1
14642 11638 11641 1
14643 11644 11645 1
14644 11644 11646 1
14645 11641 11644 1
14646 11647 11648 1
14647 11647 11649 1
14648 11644 11647 1
14649 11650 11651 1
14650 11650 11652 1
14651 11647 11650 1
14652 11653 11654 1
14653 11653 11655 1
14654 11650 11653 1
14655 11653 11656 1
14656 11656 11657 1
14657 11656 11658 1
14658 11656 11659 1
14659 11629 11660 1
14660 11660 11661 1
14661 11660 11663 1
14662 11661 11662 1
14663 11663 11664 1
14664 4518 11660 1
14665 11665 11666 1
14666 11665 11667 1
14667 11668 11669 1
14668 11668 11670 1
14669 11665 11668 1
14670 11671 11672 1
14671 11671 11673 1
14672 11668 11671 1
14673 11674 11675 1
14674 11674 11676 1
14675 11671 11674 1
14676 11677 11678 1
14677 11677 11679 1
14678 11674 11677 1
14679 11680 11681 1
14680 11680 11682 1
14681 11677 11680 1
14682 11683 11684 1
14683 11683 11685 1
14684 11680 11683 1
14685 11686 11687 1
14686 11686 11688 1
14687 11683 11686 1
14688 11689 11690 1
14689 11689 11691 1
14690 11686 11689 1
14691 11689 11692 1
14692 11692 11693 1
14693 11692 11694 1
14694 11692 11695 1
14695 11665 11696 1
14696 11696 11697 1
14697 11696 11699 1
14698 11697 11698 1
14699 11699 11700 1
14700 1728 11696 1
14701 11701 11702 1
14702 11701 11703 1
14703 11704 11705 1
14704 11704 11706 1
14705 11701 11704 1
14706 11707 11708 1
14707 11707 11709 1
14708 11704 11707 1
14709 11710 11711 1
14710 11710 11712 1
14711 11707 11710 1
14712 11713 11714 1
14713 11713 11715 1
14714 11710 11713 1
14715 11716 11717 1
14716 11716 11718 1
14717 11713 11716 1
14718 11719 11720 1
14719 11719 11721 1
14720 11716 11719 1
14721 11722 11723 1
14722 11722 11724 1
14723 11719 11722 1
14724 11725 11726 1
14725 11725 11727 1
14726 11722 11725 1
14727 11725 11728 1
14728 11728 11729 1
14729 11728 11730 1
14730 11728 11731 1
14731 11701 11732 1
14732 11732 11733 1
14733 11732 11735 1
14734 11733 11734 1
14735 11735 11736 1
14736 648 11732 1
14737 11737 11738 1
14738 11737 11739 1
14739 11740 11741 1
14740 11740 11742 1
14741 11737 11740 1
14742 11743 11744 1
14743 11743 11745 1
14744 11740 11743 1
14745 11746 11747 1
14746 11746 11748 1
14747 11743 11746 1
14748 11749 11750 1
14749 11749 11751 1
14750 11746 11749 1
14751 11752 11753 1
14752 11752 11754 1
14753 11749 11752 1
14754 11755 11756 1
14755 11755 11757 1
14756 11752 11755 1
14757 11758 11759 1
14758 11758 11760 1
14759 11755 11758 1
14760 11761 11762 1
14761 11761 11763 1
14762 11758 11761 1
14763 11761 11764 1
14764 11764 11765 1
14765 11764 11766 1
14766 11764 11767 1
14767 11737 11768 1
14768 11768 11769 1
14769 11768 11771 1
14770 11769 11770 1
14771 11771 11772 1
14772 1332 11768 1
14773 11773 11774 1
14774 11773 11775 1
14775 11776 11777 1
14776 11776 11778 1
14777 11773 11776 1
14778 11779 11780 1
14779 11779 11781 1
14780 11776 11779 1
14781 11782 11783 1
14782 11782 11784 1
14783 11779 11782 1
14784 11785 11786 1
14785 11785 11787 1
14786 11782 11785 1
14787 11788 11789 1
14788 11788 11790 1
14789 11785 11788 1
14790 11791 11792 1
14791 11791 11793 1
14792 11788 11791 1
14793 11794 11795 1
14794 11794 11796 1
14795 11791 11794 1
14796 11797 11798 1
14797 11797 11799 1
14798 11794 11797 1
14799 11797 11800 1
14800 11800 11801 1
14801 11800 11802 1
14802 11800 11803 1
14803 11773 11804 1
14804 11804 11805 1
14805 11804 11807 1
14806 11805 11806 1
14807 11807 11808 1
14808 2052 11804 1
14809 11809 11810 1
14810 11809 11811 1
14811 11812 11813 1
14812 11812 11814 1
14813 11809 11812 1
14814 11815 11816 1
14815 11815 11817 1
14816 11812 11815 1
14817 11818 11819 1
14818 11818 11820 1
14819 11815 11818 1
14820 11821 11822 1
14821 11821 11823 1
14822 11818 11821 1
14823 11824 11825 1
14824 11824 11826 1
14825 11821 11824 1
14826 11827 11828 1
14827 11827 11829 1
14828 11824 11827 1
14829 11830 11831 1
14830 11830 11832 1
14831 11827 11830 1
14832 11833 11834 1
14833 11833 11835 1
14834 11830 11833 1
14835 11833 11836 1
14836 11836 11837 1
14837 11836 11838 1
14838 11836 11839 1
14839 11809 11840 1
14840 11840 11841 1
14841 11840 11843 1
14842 11841 11842 1
14843 11843 11844 1
14844 2772 11840 1
14845 11845 11846 1
14846 11845 11847 1
14847 11848 11849 1
14848 11848 11850 1
14849 11845 11848 1
14850 11851 11852 1
14851 11851 11853 1
14852 11848 11851 1
14853 11854 11855 1
14854 11854 11856 1
14855 11851 11854 1
14856 11857 11858 1
14857 11857 11859 1
14858 11854 11857 1
14859 11860 11861 1
14860 11860 11862 1
14861 11857 11860 1
14862 11863 11864 1
14863 11863 11865 1
14864 11860 11863 1
14865 11866 11867 1
14866 11866 11868 1
14867 11863 11866 1
14868 11869 11870 1
14869 11869 11871 1
14870 11866 11869 1
14871 11869 11872 1
14872 11872 11873 1
14873 11872 11874 1
14874 11872 11875 1
14875 11845 11876 1
14876 11876 11877 1
14877 11876 11879 1
14878 11877 11878 1
14879 11879 11880 1
14880 3492 11876 1
14881 11881 11882 1
14882 11881 11883 1
14883 11884 11885 1
14884 11884 11886 1
14885 11881 11884 1
14886 11887 11888 1
14887 11887 11889 1
14888 11884 11887 1
14889 11890 11891 1
14890 11890 11892 1
14891 11887 11890 1
14892 11893 11894 1
14893 11893 11895 1
14894 11890 11893 1
14895 11896 11897 1
14896 11896 11898 1
14897 11893 11896 1
14898 11899 11900 1
14899 11899 11901 1
14900 11896 11899 1
14901 11902 11903 1
14902 11902 11904 1
14903 11899 11902 1
14904 11905 11906 1
14905 11905 11907 1
14906 11902 11905 1
14907 11905 11908 1
14908 11908 11909 1
14909 11908 11910 1
14910 11908 11911 1
14911 11881 11912 1
14912 11912 11913 1
14913 11912 11915 1
14914 11913 11914 1
14915 11915 11916 1
14916 3888 11912 1
14917 11917 11918 1
14918 11917 11919 1
14919 11920 11921 1
14920 11920 11922 1
14921 11917 11920 1
14922 11923 11924 1
14923 11923 11925 1
14924 11920 11923 1
14925 11926 11927 1
14926 11926 11928 1
14927 11923 11926 1
14928 11929 11930 1
14929 11929 11931 1
14930 11926 11929 1
14931 11932 11933 1
14932 11932 11934 1
14933 11929 11932 1
14934 11935 11936 1
14935 11935 11937 1
14936 11932 11935 1
14937 11938 11939 1
14938 11938 11940 1
14939 11935 11938 1
14940 11941 11942 1
14941 11941 11943 1
14942 11938 11941 1
14943 11941 11944 1
14944 11944 11945 1
14945 11944 11946 1
14946 11944 11947 1
14947 11917 11948 1
14948 11948 11949 1
14949 11948 11951 1
14950 11949 11950 1
14951 11951 11952 1
14952 4608 11948 1
14953 11953 11954 1
14954 11953 11955 1
14955 11956 11957 1
14956 11956 11958 1
14957 11953 11956 1
14958 11959 11960 1
14959 11959 11961 1
14960 11956 11959 1
14961 11962 11963 1
14962 11962 11964 1
14963 11959 11962 1
14964 11965 11966 1
14965 11965 11967 1
14966 11962 11965 1
14967 11968 11969 1
14968 11968 11970 1
14969 11965 11968 1
14970 11971 11972 1
14971 11971 11973 1
14972 11968 11971 1
14973 11974 11975 1
14974 11974 11976 1
14975 11971 11974 1
14976 11977 11978 1
14977 11977 11979 1
14978 11974 11977 1
14979 11977 11980 1
14980 11980 11981 1
14981 11980 11982 1
14982 11980 11983 1
14983 11953 11984 1
14984 11984 11985 1
14985 11984 11987 1
14986 11985 11986 1
14987 11987 11988 1
14988 1800 11984 1
14989 11989 11990 1
14990 11989 11991 1
14991 11992 11993 1
14992 11992 11994 1
14993 11989 11992 1
14994 11995 11996 1
14995 11995 11997 1
14996 11992 11995 1
14997 11998 11999 1
14998 11998 12000 1
14999 11995 11998 1
15000 12001 12002 1
15001 12001 12003 1
15002 11998 12001 1
15003 12004 12005 1
15004 12004 12006 1
15005 12001 12004 1
15006 12007 12008 1
15007 12007 12009 1
15008 12004 12007 1
15009 12010 12011 1
15010 12010 12012 1
15011 12007 12010 1
15012 12013 12014 1
15013 12013 12015 1
15014 12010 12013 1
15015 12013 12016 1
15016 12016 12017 1
15017 12016 12018 1
15018 12016 12019 1
15019 11989 12020 1
15020 12020 12021 1
15021 12020 12023 1
15022 12021 12022 1
15023 12023 12024 1
15024 720 12020 1
15025 12025 12026 1
15026 12025 12027 1
15027 12028 12029 1
15028 12028 12030 1
15029 12025 12028 1
15030 12031 12032 1
15031 12031 12033 1
15032 12028 12031 1
15033 12034 12035 1
15034 12034 12036 1
15035 12031 12034 1
15036 12037 12038 1
15037 12037 12039 1
15038 12034 12037 1
15039 12040 12041 1
15040 12040 12042 1
15041 12037 12040 1
15042 12043 12044 1
15043 12043 12045 1
15044 12040 12043 1
15045 12046 12047 1
15046 12046 12048 1
15047 12043 12046 1
15048 12049 12050 1
15049 12049 12051 1
15050 12046 12049 1
15051 12049 12052 1
15052 12052 12053 1
15053 12052 12054 1
15054 12052 12055 1
15055 12025 12056 1
15056 12056 12057 1
15057 12056 12059 1
15058 12057 12058 1
15059 12059 12060 1
15060 1440 12056 1
15061 12061 12062 1
15062 12061 12063 1
15063 12064 12065 1
15064 12064 12066 1
15065 12061 12064 1
15066 12067 12068 1
15067 12067 12069 1
15068 12064 12067 1
15069 12070 12071 1
15070 12070 12072 1
15071 12067 12070 1
15072 12073 12074 1
15073 12073 12075 1
15074 12070 12073 1
15075 12076 12077 1
15076 12076 12078 1
15077 12073 12076 1
15078 12079 12080 1
15079 12079 12081 1
15080 12076 12079 1
15081 12082 12083 1
15082 12082 12084 1
15083 12079 12082 1
15084 12085 12086 1
15085 12085 12087 1
15086 12082 12085 1
15087 12085 12088 1
15088 12088 12089 1
15089 12088 12090 1
15090 12088 12091 1
15091 12061 12092 1
15092 12092 12093 1
15093 12092 12095 1
15094 12093 12094 1
15095 12095 12096 1
15096 7218 12092 1
15097 12097 12098 1
15098 12097 12099 1
15099 12100 12101 1
15100 12100 12102 1
15101 12097 12100 1
15102 12103 12104 1
15103 12103 12105 1
15104 12100 12103 1
15105 12106 12107 1
15106 12106 12108 1
15107 12103 12106 1
15108 12109 12110 1
15109 12109 12111 1
15110 12106 12109 1
15111 12112 12113 1
15112 12112 12114 1
15113 12109 12112 1
15114 12115 12116 1
15115 12115 12117 1
15116 12112 12115 1
15117 12118 12119 1
15118 12118 12120 1
15119 12115 12118 1
15120 12121 12122 1
15121 12121 12123 1
15122 12118 12121 1
15123 12121 12124 1
15124 12124 12125 1
15125 12124 12126 1
15126 12124 12127 1
15127 12097 12128 1
15128 12128 12129 1
15129 12128 12131 1
15130 12129 12130 1
15131 12131 12132 1
15132 7938 12128 1
15133 12133 12134 1
15134 12133 12135 1
15135 12136 12137 1
15136 12136 12138 1
15137 12133 12136 1
15138 12139 12140 1
15139 12139 12141 1
15140 12136 12139 1
15141 12142 12143 1
15142 12142 12144 1
15143 12139 12142 1
15144 12145 12146 1
15145 12145 12147 1
15146 12142 12145 1
15147 12148 12149 1
15148 12148 12150 1
15149 12145 12148 1
15150 12151 12152 1
15151 12151 12153 1
15152 12148 12151 1
15153 12154 12155 1
15154 12154 12156 1
15155 12151 12154 1
15156 12157 12158 1
15157 12157 12159 1
15158 12154 12157 1
15159 12157 12160 1
15160 12160 12161 1
15161 12160 12162 1
15162 12160 12163 1
15163 12133 12164 1
15164 12164 12165 1
15165 12164 12167 1
15166 12165 12166 1
15167 12167 12168 1
15168 3240 12164 1
15169 12169 12170 1
15170 12169 12171 1
15171 12172 12173 1
15172 12172 12174 1
15173 12169 12172 1
15174 12175 12176 1
15175 12175 12177 1
15176 12172 12175 1
15177 12178 12179 1
15178 12178 12180 1
15179 12175 12178 1
15180 12181 12182 1
15181 12181 12183 1
15182 12178 12181 1
15183 12184 12185 1
15184 12184 12186 1
15185 12181 12184 1
15186 12187 12188 1
15187 12187 12189 1
15188 12184 12187 1
15189 12190 12191 1
15190 12190 12192 1
15191 12187 12190 1
15192 12193 12194 1
15193 12193 12195 1
15194 12190 12193 1
15195 12193 12196 1
15196 12196 12197 1
15197 12196 12198 1
15198 12196 12199 1
15199 12169 12200 1
15200 12200 12201 1
15201 12200 12203 1
15202 12201 12202 1
15203 12203 12204 1
15204 3960 12200 1
15205 12205 12206 1
15206 12205 12207 1
15207 12208 12209 1
15208 12208 12210 1
15209 12205 12208 1
15210 12211 12212 1
15211 12211 12213 1
15212 12208 12211 1
15213 12214 12215 1
15214 12214 12216 1
15215 12211 12214 1
15216 12217 12218 1
15217 12217 12219 1
15218 12214 12217 1
15219 12220 12221 1
15220 12220 12222 1
15221 12217 12220 1
15222 12223 12224 1
15223 12223 12225 1
15224 12220 12223 1
15225 12226 12227 1
15226 12226 12228 1
15227 12223 12226 1
15228 12229 12230 1
15229 12229 12231 1
15230 12226 12229 1
15231 12229 12232 1
15232 12232 12233 1
15233 12232 12234 1
15234 12232 12235 1
15235 12205 12236 1
15236 12236 12237 1
15237 12236 12239 1
15238 12237 12238 1
15239 12239 12240 1
15240 4680 12236 1
15241 12241 12242 1
15242 12241 12243 1
15243 12244 12245 1
15244 12244 12246 1
15245 12241 12244 1
15246 12247 12248 1
15247 12247 12249 1
15248 12244 12247 1
15249 12250 12251 1
15250 12250 12252 1
15251 12247 12250 1
15252 12253 12254 1
15253 12253 12255 1
15254 12250 12253 1
15255 12256 12257 1
15256 12256 12258 1
15257 12253 12256 1
15258 12259 12260 1
15259 12259 12261 1
15260 12256 12259 1
15261 12262 12263 1
15262 12262 12264 1
15263 12259 12262 1
15264 12265 12266 1
15265 12265 12267 1
15266 12262 12265 1
15267 12265 12268 1
15268 12268 12269 1
15269 12268 12270 1
15270 12268 12271 1
15271 12241 12272 1
15272 12272 12273 1
15273 12272 12275 1
15274 12273 12274 1
15275 12275 12276 1
15276 6966 12272 1
15277 12277 12278 1
15278 12277 12279 1
15279 12280 12281 1
15280 12280 12282 1
15281 12277 12280 1
15282 12283 12284 1
15283 12283 12285 1
15284 12280 12283 1
15285 12286 12287 1
15286 12286 12288 1
15287 12283 12286 1
15288 12289 12290 1
15289 12289 12291 1
15290 12286 12289 1
15291 12292 12293 1
15292 12292 12294 1
15293 12289 12292 1
15294 12295 12296 1
15295 12295 12297 1
15296 12292 12295 1
15297 12298 12299 1
15298 12298 12300 1
15299 12295 12298 1
15300 12301 12302 1
15301 12301 12303 1
15302 12298 12301 1
15303 12301 12304 1
15304 12304 12305 1
15305 12304 12306 1
15306 12304 12307 1
15307 12277 12308 1
15308 12308 12309 1
15309 12308 12311 1
15310 12309 12310 1
15311 12311 12312 1
15312 5886 12308 1
15313 12313 12314 1
15314 12313 12315 1
15315 12316 12317 1
15316 12316 12318 1
15317 12313 12316 1
15318 12319 12320 1
15319 12319 12321 1
15320 12316 12319 1
15321 12322 12323 1
15322 12322 12324 1
15323 12319 12322 1
15324 12325 12326 1
15325 12325 12327 1
15326 12322 12325 1
15327 12328 12329 1
15328 12328 12330 1
15329 12325 12328 1
15330 12331 12332 1
15331 12331 12333 1
15332 12328 12331 1
15333 12334 12335 1
15334 12334 12336 1
15335 12331 12334 1
15336 12337 12338 1
15337 12337 12339 1
15338 12334 12337 1
15339 12337 12340 1
15340 12340 12341 1
15341 12340 12342 1
15342 12340 12343 1
15343 12313 12344 1
15344 12344 12345 1
15345 12344 12347 1
15346 12345 12346 1
15347 12347 12348 1
15348 6570 12344 1
15349 12349 12350 1
15350 12349 12351 1
15351 12352 12353 1
15352 12352 12354 1
15353 12349 12352 1
15354 12355 12356 1
15355 12355 12357 1
15356 12352 12355 1
15357 12358 12359 1
15358 12358 12360 1
15359 12355 12358 1
15360 12361 12362 1
15361 12361 12363 1
15362 12358 12361 1
15363 12364 12365 1
15364 12364 12366 1
15365 12361 12364 1
15366 12367 12368 1
15367 12367 12369 1
15368 12364 12367 1
15369 12370 12371 1
15370 12370 12372 1
15371 12367 12370 1
15372 12373 12374 1
15373 12373 12375 1
15374 12370 12373 1
15375 12373 12376 1
15376 12376 12377 1
15377 12376 12378 1
15378 12376 12379 1
15379 12349 12380 1
15380 12380 12381 1
15381 12380 12383 1
15382 12381 12382 1
15383 12383 12384 1
15384 7290 12380 1
15385 12385 12386 1
15386 12385 12387 1
15387 12388 12389 1
15388 12388 12390 1
15389 12385 12388 1
15390 12391 12392 1
15391 12391 12393 1
15392 12388 12391 1
15393 12394 12395 1
15394 12394 12396 1
15395 12391 12394 1
15396 12397 12398 1
15397 12397 12399 1
15398 12394 12397 1
15399 12400 12401 1
15400 12400 12402 1
15401 12397 12400 1
15402 12403 12404 1
15403 12403 12405 1
15404 12400 12403 1
15405 12406 12407 1
15406 12406 12408 1
15407 12403 12406 1
15408 12409 12410 1
15409 12409 12411 1
15410 12406 12409 1
15411 12409 12412 1
15412 12412 12413 1
15413 12412 12414 1
15414 12412 12415 1
15415 12385 12416 1
15416 12416 12417 1
15417 12416 12419 1
15418 12417 12418 1
15419 12419 12420 1
15420 8010 12416 1
15421 12421 12422 1
15422 12421 12423 1
15423 12424 12425 1
15424 12424 12426 1
15425 12421 12424 1
15426 12427 12428 1
15427 12427 12429 1
15428 12424 12427 1
15429 12430 12431 1
15430 12430 12432 1
15431 12427 12430 1
15432 12433 12434 1
15433 12433 12435 1
15434 12430 12433 1
15435 12436 12437 1
15436 12436 12438 1
15437 12433 12436 1
15438 12439 12440 1
15439 12439 12441 1
15440 12436 12439 1
15441 12442 12443 1
15442 12442 12444 1
15443 12439 12442 1
15444 12445 12446 1
15445 12445 12447 1
15446 12442 12445 1
15447 12445 12448 1
15448 12448 12449 1
15449 12448 12450 1
15450 12448 12451 1
15451 12421 12452 1
15452 12452 12453 1
15453 12452 12455 1
15454 12453 12454 1
15455 12455 12456 1
15456 8730 12452 1
15457 12457 12458 1
15458 12457 12459 1
15459 12460 12461 1
15460 12460 12462 1
15461 12457 12460 1
15462 12463 12464 1
15463 12463 12465 1
15464 12460 12463 1
15465 12466 12467 1
15466 12466 12468 1
15467 12463 12466 1
15468 12469 12470 1
15469 12469 12471 1
15470 12466 12469 1
15471 12472 12473 1
15472 12472 12474 1
15473 12469 12472 1
15474 12475 12476 1
15475 12475 12477 1
15476 12472 12475 1
15477 12478 12479 1
15478 12478 12480 1
15479 12475 12478 1
15480 12481 12482 1
15481 12481 12483 1
15482 12478 12481 1
15483 12481 12484 1
15484 12484 12485 1
15485 12484 12486 1
15486 12484 12487 1
15487 12457 12488 1
15488 12488 12489 1
15489 12488 12491 1
15490 12489 12490 1
15491 12491 12492 1
15492 9126 12488 1
15493 12493 12494 1
15494 12493 12495 1
15495 12496 12497 1
15496 12496 12498 1
15497 12493 12496 1
15498 12499 12500 1
15499 12499 12501 1
15500 12496 12499 1
15501 12502 12503 1
15502 12502 12504 1
15503 12499 12502 1
15504 12505 12506 1
15505 12505 12507 1
15506 12502 12505 1
15507 12508 12509 1
15508 12508 12510 1
15509 12505 12508 1
15510 12511 12512 1
15511 12511 12513 1
15512 12508 12511 1
15513 12514 12515 1
15514 12514 12516 1
15515 12511 12514 1
15516 12517 12518 1
15517 12517 12519 1
15518 12514 12517 1
15519 12517 12520 1
15520 12520 12521 1
15521 12520 12522 1
15522 12520 12523 1
15523 12493 12524 1
15524 12524 12525 1
15525 12524 12527 1
15526 12525 12526 1
15527 12527 12528 1
15528 9846 12524 1
15529 12529 12530 1
15530 12529 12531 1
15531 12532 12533 1
15532 12532 12534 1
15533 12529 12532 1
15534 12535 12536 1
15535 12535 12537 1
15536 12532 12535 1
15537 12538 12539 1
15538 12538 12540 1
15539 12535 12538 1
15540 12541 12542 1
15541 12541 12543 1
15542 12538 12541 1
15543 12544 12545 1
15544 12544 12546 1
15545 12541 12544 1
15546 12547 12548 1
15547 12547 12549 1
15548 12544 12547 1
15549 12550 12551 1
15550 12550 12552 1
15551 12547 12550 1
15552 12553 12554 1
15553 12553 12555 1
15554 12550 12553 1
15555 12553 12556 1
15556 12556 12557 1
15557 12556 12558 1
15558 12556 12559 1
15559 12529 12560 1
15560 12560 12561 1
15561 12560 12563 1
15562 12561 12562 1
15563 12563 12564 1
15564 7038 12560 1
15565 12565 12566 1
15566 12565 12567 1
15567 12568 12569 1
15568 12568 12570 1
15569 12565 12568 1
15570 12571 12572 1
15571 12571 12573 1
15572 12568 12571 1
15573 12574 12575 1
15574 12574 12576 1
15575 12571 12574 1
15576 12577 12578 1
15577 12577 12579 1
15578 12574 12577 1
15579 12580 12581 1
15580 12580 12582 1
15581 12577 12580 1
15582 12583 12584 1
15583 12583 12585 1
15584 12580 12583 1
15585 12586 12587 1
15586 12586 12588 1
15587 12583 12586 1
15588 12589 12590 1
15589 12589 12591 1
15590 12586 12589 1
15591 12589 12592 1
15592 12592 12593 1
15593 12592 12594 1
15594 12592 12595 1
15595 12565 12596 1
15596 12596 12597 1
15597 12596 12599 1
15598 12597 12598 1
15599 12599 12600 1
15600 5958 12596 1
15601 12601 12602 1
15602 12601 12603 1
15603 12604 12605 1
15604 12604 12606 1
15605 12601 12604 1
15606 12607 12608 1
15607 12607 12609 1
15608 12604 12607 1
15609 12610 12611 1
15610 12610 12612 1
15611 12607 12610 1
15612 12613 12614 1
15613 12613 12615 1
15614 12610 12613 1
15615 12616 12617 1
15616 12616 12618 1
15617 12613 12616 1
15618 12619 12620 1
15619 12619 12621 1
15620 12616 12619 1
15621 12622 12623 1
15622 12622 12624 1
15623 12619 12622 1
15624 12625 12626 1
15625 12625 12627 1
15626 12622 12625 1
15627 12625 12628 1
15628 12628 12629 1
15629 12628 12630 1
15630 12628 12631 1
15631 12601 12632 1
15632 12632 12633 1
15633 12632 12635 1
15634 12633 12634 1
15635 12635 12636 1
15636 6678 12632 1
15637 12637 12638 1
15638 12637 12639 1
15639 12640 12641 1
15640 12640 12642 1
15641 12637 12640 1
15642 12643 12644 1
15643 12643 12645 1
15644 12640 12643 1
15645 12646 12647 1
15646 12646 12648 1
15647 12643 12646 1
15648 12649 12650 1
15649 12649 12651 1
15650 12646 12649 1
15651 12652 12653 1
15652 12652 12654 1
15653 12649 12652 1
15654 12655 12656 1
15655 12655 12657 1
15656 12652 12655 1
15657 12658 12659 1
15658 12658 12660 1
15659 12655 12658 1
15660 12661 12662 1
15661 12661 12663 1
15662 12658 12661 1
15663 12661 12664 1
15664 12664 12665 1
15665 12664 12666 1
15666 12664 12667 1
15667 12637 12668 1
15668 12668 12669 1
15669 12668 12671 1
15670 12669 12670 1
15671 12671 12672 1
15672 7380 12668 1
15673 12673 12674 1
15674 12673 12675 1
15675 12676 12677 1
15676 12676 12678 1
15677 12673 12676 1
15678 12679 12680 1
15679 12679 12681 1
15680 12676 12679 1
15681 12682 12683 1
15682 12682 12684 1
15683 12679 12682 1
15684 12685 12686 1
15685 12685 12687 1
15686 12682 12685 1
15687 12688 12689 1
15688 12688 12690 1
15689 12685 12688 1
15690 12691 12692 1
15691 12691 12693 1
15692 12688 12691 1
15693 12694 12695 1
15694 12694 12696 1
15695 12691 12694 1
15696 12697 12698 1
15697 12697 12699 1
15698 12694 12697 1
15699 12697 12700 1
15700 12700 12701 1
15701 12700 12702 1
15702 12700 12703 1
15703 12673 12704 1
15704 12704 12705 1
15705 12704 12707 1
15706 12705 12706 1
15707 12707 12708 1
15708 8100 12704 1
15709 12709 12710 1
15710 12709 12711 1
15711 12712 12713 1
15712 12712 12714 1
15713 12709 12712 1
15714 12715 12716 1
15715 12715 12717 1
15716 12712 12715 1
15717 12718 12719 1
15718 12718 12720 1
15719 12715 12718 1
15720 12721 12722 1
15721 12721 12723 1
15722 12718 12721 1
15723 12724 12725 1
15724 12724 12726 1
15725 12721 12724 1
15726 12727 12728 1
15727 12727 12729 1
15728 12724 12727 1
15729 12730 12731 1
15730 12730 12732 1
15731 12727 12730 1
15732 12733 12734 1
15733 12733 12735 1
15734 12730 12733 1
15735 12733 12736 1
15736 12736 12737 1
15737 12736 12738 1
15738 12736 12739 1
15739 12709 12740 1
15740 12740 12741 1
15741 12740 12743 1
15742 12741 12742 1
15743 12743 12744 1
15744 8478 12740 1
15745 12745 12746 1
15746 12745 12747 1
15747 12748 12749 1
15748 12748 12750 1
15749 12745 12748 1
15750 12751 12752 1
15751 12751 12753 1
15752 12748 12751 1
15753 12754 12755 1
15754 12754 12756 1
15755 12751 12754 1
15756 12757 12758 1
15757 12757 12759 1
15758 12754 12757 1
15759 12760 12761 1
15760 12760 12762 1
15761 12757 12760 1
15762 12763 12764 1
15763 12763 12765 1
15764 12760 12763 1
15765 12766 12767 1
15766 12766 12768 1
15767 12763 12766 1
15768 12769 12770 1
15769 12769 12771 1
15770 12766 12769 1
15771 12769 12772 1
15772 12772 12773 1
15773 12772 12774 1
15774 12772 12775 1
15775 12745 12776 1
15776 12776 12777 1
15777 12776 12779 1
15778 12777 12778 1
15779 12779 12780 1
15780 9198 12776 1
15781 12781 12782 1
15782 12781 12783 1
15783 12784 12785 1
15784 12784 12786 1
15785 12781 12784 1
15786 12787 12788 1
15787 12787 12789 1
15788 12784 12787 1
15789 12790 12791 1
15790 12790 12792 1
15791 12787 12790 1
15792 12793 12794 1
15793 12793 12795 1
15794 12790 12793 1
15795 12796 12797 1
15796 12796 12798 1
15797 12793 12796 1
15798 12799 12800 1
15799 12799 12801 1
15800 12796 12799 1
15801 12802 12803 1
15802 12802 12804 1
15803 12799 12802 1
15804 12805 12806 1
15805 12805 12807 1
15806 12802 12805 1
15807 12805 12808 1
15808 12808 12809 1
15809 12808 12810 1
15810 12808 12811 1
15811 12781 12812 1
15812 12812 12813 1
15813 12812 12815 1
15814 12813 12814 1
15815 12815 12816 1
15816 9918 12812 1
15817 12817 12818 1
15818 12817 12819 1
15819 12820 12821 1
15820 12820 12822 1
15821 12817 12820 1
15822 12823 12824 1
15823 12823 12825 1
15824 12820 12823 1
15825 12826 12827 1
15826 12826 12828 1
15827 12823 12826 1
15828 12829 12830 1
15829 12829 12831 1
15830 12826 12829 1
15831 12832 12833 1
15832 12832 12834 1
15833 12829 12832 1
15834 12835 12836 1
15835 12835 12837 1
15836 12832 12835 1
15837 12838 12839 1
15838 12838 12840 1
15839 12835 12838 1
15840 12841 12842 1
15841 12841 12843 1
15842 12838 12841 1
15843 12841 12844 1
15844 12844 12845 1
15845 12844 12846 1
15846 12844 12847 1
15847 12817 12848 1
15848 12848 12849 1
15849 12848 12851 1
15850 12849 12850 1
15851 12851 12852 1
15852 7128 12848 1
15853 12853 12854 1
15854 12853 12855 1
15855 12856 12857 1
15856 12856 12858 1
15857 12853 12856 1
15858 12859 12860 1
15859 12859 12861 1
15860 12856 12859 1
15861 12862 12863 1
15862 12862 12864 1
15863 12859 12862 1
15864 12865 12866 1
15865 12865 12867 1
15866 12862 12865 1
15867 12868 12869 1
15868 12868 12870 1
15869 12865 12868 1
15870 12871 12872 1
15871 12871 12873 1
15872 12868 12871 1
15873 12874 12875 1
15874 12874 12876 1
15875 12871 12874 1
15876 12877 12878 1
15877 12877 12879 1
15878 12874 12877 1
15879 12877 12880 1
15880 12880 12881 1
15881 12880 12882 1
15882 12880 12883 1
15883 12853 12884 1
15884 12884 12885 1
15885 12884 12887 1
15886 12885 12886 1
15887 12887 12888 1
15888 6048 12884 1
15889 12889 12890 1
15890 12889 12891 1
15891 12892 12893 1
15892 12892 12894 1
15893 12889 12892 1
15894 12895 12896 1
15895 12895 12897 1
15896 12892 12895 1
15897 12898 12899 1
15898 12898 12900 1
15899 12895 12898 1
15900 12901 12902 1
15901 12901 12903 1
15902 12898 12901 1
15903 12904 12905 1
15904 12904 12906 1
15905 12901 12904 1
15906 12907 12908 1
15907 12907 12909 1
15908 12904 12907 1
15909 12910 12911 1
15910 12910 12912 1
15911 12907 12910 1
15912 12913 12914 1
15913 12913 12915 1
15914 12910 12913 1
15915 12913 12916 1
15916 12916 12917 1
15917 12916 12918 1
15918 12916 12919 1
15919 12889 12920 1
15920 12920 12921 1
15921 12920 12923 1
15922 12921 12922 1
15923 12923 12924 1
15924 6732 12920 1
15925 12925 12926 1
15926 12925 12927 1
15927 12928 12929 1
15928 12928 12930 1
15929 12925 12928 1
15930 12931 12932 1
15931 12931 12933 1
15932 12928 12931 1
15933 12934 12935 1
15934 12934 12936 1
15935 12931 12934 1
15936 12937 12938 1
15937 12937 12939 1
15938 12934 12937 1
15939 12940 12941 1
15940 12940 12942 1
15941 12937 12940 1
15942 12943 12944 1
15943 12943 12945 1
15944 12940 12943 1
15945 12946 12947 1
15946 12946 12948 1
15947 12943 12946 1
15948 12949 12950 1
15949 12949 12951 1
15950 12946 12949 1
15951 12949 12952 1
15952 12952 12953 1
15953 12952 12954 1
15954 12952 12955 1
15955 12925 12956 1
15956 12956 12957 1
15957 12956 12959 1
15958 12957 12958 1
15959 12959 12960 1
15960 7452 12956 1
15961 12961 12962 1
15962 12961 12963 1
15963 12964 12965 1
15964 12964 12966 1
15965 12961 12964 1
15966 12967 12968 1
15967 12967 12969 1
15968 12964 12967 1
15969 12970 12971 1
15970 12970 12972 1
15971 12967 12970 1
15972 12973 12974 1
15973 12973 12975 1
15974 12970 12973 1
15975 12976 12977 1
15976 12976 12978 1
15977 12973 12976 1
15978 12979 12980 1
15979 12979 12981 1
15980 12976 12979 1
15981 12982 12983 1
15982 12982 12984 1
15983 12979 12982 1
15984 12985 12986 1
15985 12985 12987 1
15986 12982 12985 1
15987 12985 12988 1
15988 12988 12989 1
15989 12988 12990 1
15990 12988 12991 1
15991 12961 12992 1
15992 12992 12993 1
15993 12992 12995 1
15994 12993 12994 1
15995 12995 12996 1
15996 8172 12992 1
15997 12997 12998 1
15998 12997 12999 1
15999 13000 13001 1
16000 13000 13002 1
16001 12997 13000 1
16002 13003 13004 1
16003 13003 13005 1
16004 13000 13003 1
16005 13006 13007 1
16006 13006 13008 1
16007 13003 13006 1
16008 13009 13010 1
16009 13009 13011 1
16010 13006 13009 1
16011 13012 13013 1
16012 13012 13014 1
16013 13009 13012 1
16014 13015 13016 1
16015 13015 13017 1
16016 13012 13015 1
16017 13018 13019 1
16018 13018 13020 1
16019 13015 13018 1
16020 13021 13022 1
16021 13021 13023 1
16022 13018 13021 1
16023 13021 13024 1
16024 13024 13025 1
16025 13024 13026 1
16026 13024 13027 1
16027 12997 13028 1
16028 13028 13029 1
16029 13028 13031 1
16030 13029 13030 1
16031 13031 13032 1
16032 8892 13028 1
16033 13033 13034 1
16034 13033 13035 1
16035 13036 13037 1
16036 13036 13038 1
16037 13033 13036 1
16038 13039 13040 1
16039 13039 13041 1
16040 13036 13039 1
16041 13042 13043 1
16042 13042 13044 1
16043 13039 13042 1
16044 13045 13046 1
16045 13045 13047 1
16046 13042 13045 1
16047 13048 13049 1
16048 13048 13050 1
16049 13045 13048 1
16050 13051 13052 1
16051 13051 13053 1
16052 13048 13051 1
16053 13054 13055 1
16054 13054 13056 1
16055 13051 13054 1
16056 13057 13058 1
16057 13057 13059 1
16058 13054 13057 1
16059 13057 13060 1
16060 13060 13061 1
16061 13060 13062 1
16062 13060 13063 1
16063 13033 13064 1
16064 13064 13065 1
16065 13064 13067 1
16066 13065 13066 1
16067 13067 13068 1
16068 9288 13064 1
16069 13069 13070 1
16070 13069 13071 1
16071 13072 13073 1
16072 13072 13074 1
16073 13069 13072 1
16074 13075 13076 1
16075 13075 13077 1
16076 13072 13075 1
16077 13078 13079 1
16078 13078 13080 1
16079 13075 13078 1
16080 13081 13082 1
16081 13081 13083 1
16082 13078 13081 1
16083 13084 13085 1
16084 13084 13086 1
16085 13081 13084 1
16086 13087 13088 1
16087 13087 13089 1
16088 13084 13087 1
16089 13090 13091 1
16090 13090 13092 1
16091 13087 13090 1
16092 13093 13094 1
16093 13093 13095 1
16094 13090 13093 1
16095 13093 13096 1
16096 13096 13097 1
16097 13096 13098 1
16098 13096 13099 1
16099 13069 13100 1
16100 13100 13101 1
16101 13100 13103 1
16102 13101 13102 1
16103 13103 13104 1
16104 10008 13100 1
16105 18 13105 1
16106 36 13106 1
16107 54 13107 1
16108 72 13108 1
16109 90 13109 1
16110 108 13110 1
16111 126 13111 1
16112 144 13112 1
16113 162 13113 1
16114 180 13114 1
16115 198 13115 1
16116 216 13116 1
16117 234 13117 1
16118 252 13118 1
16119 270 13119 1
16120 288 13120 1
16121 306 13121 1
16122 324 13122 1
16123 342 13123 1
16124 360 13124 1
16125 378 13125 1
16126 396 13126 1
16127 414 13127 1
16128 432 13128 1
16129 450 13129 1
16130 468 13130 1
16131 504 13131 1
16132 522 13132 1
16133 540 13133 1
16134 576 13134 1
16135 594 13135 1
16136 612 13136 1
16137 630 13137 1
16138 666 13138 1
16139 684 13139 1
16140 702 13140 1
16141 738 13141 1
16142 756 13142 1
16143 774 13143 1
16144 792 13144 1
16145 810 13145 1
16146 828 13146 1
16147 846 13147 1
16148 864 13148 1
16149 882 13149 1
16150 900 13150 1
16151 918 13151 1
16152 936 13152 1
16153 954 13153 1
16154 972 13154 1
16155 990 13155 1
16156 1008 13156 1
16157 1026 13157 1
16158 1044 13158 1
16159 1062 13159 1
16160 1080 13160 1
16161 1116 13161 1
16162 1134 13162 1
16163 1152 13163 1
16164 1188 13164 1
16165 1206 13165 1
16166 1224 13166 1
16167 1242 13167 1
16168 1278 13168 1
16169 1296 13169 1
16170 1314 13170 1
16171 1350 13171 1
16172 1368 13172 1
16173 1386 13173 1
16174 1404 13174 1
16175 1422 13175 1
16176 1458 13176 1
16177 1476 13177 1
16178 1494 13178 1
16179 1512 13179 1
16180 1530 13180 1
16181 1548 13181 1
16182 1584 13182 1
16183 1602 13183 1
16184 1620 13184 1
16185 1656 13185 1
16186 1674 13186 1
16187 1692 13187 1
16188 1710 13188 1
16189 1746 13189 1
16190 1764 13190 1
16191 1782 13191 1
16192 1836 13192 1
16193 1854 13193 1
16194 1872 13194 1
16195 1908 13195 1
16196 1926 13196 1
16197 1944 13197 1
16198 1962 13198 1
16199 1998 13199 1
16200 2016 13200 1
16201 2034 13201 1
16202 2070 13202 1
16203 2088 13203 1
16204 2106 13204 1
16205 2124 13205 1
16206 2142 13206 1
16207 2160 13207 1
16208 2178 13208 1
16209 2196 13209 1
16210 2214 13210 1
16211 2232 13211 1
16212 2250 13212 1
16213 2268 13213 1
16214 2286 13214 1
16215 2304 13215 1
16216 2322 13216 1
16217 2340 13217 1
16218 2358 13218 1
16219 2376 13219 1
16220 2394 13220 1
16221 2412 13221 1
16222 2430 13222 1
16223 2448 13223 1
16224 2466 13224 1
16225 2484 13225 1
16226 2502 13226 1
16227 2520 13227 1
16228 2556 13228 1
16229 2574 13229 1
16230 2592 13230 1
16231 2628 13231 1
16232 2646 13232 1
16233 2664 13233 1
16234 2682 13234 1
16235 2718 13235 1
16236 2736 13236 1
16237 2754 13237 1
16238 2790 13238 1
16239 2808 13239 1
16240 2826 13240 1
16241 2844 13241 1
16242 2862 13242 1
16243 2880 13243 1
16244 2898 13244 1
16245 2916 13245 1
16246 2934 13246 1
16247 2952 13247 1
16248 2970 13248 1
16249 2988 13249 1
16250 3006 13250 1
16251 3024 13251 1
16252 3042 13252 1
16253 3060 13253 1
16254 3096 13254 1
16255 3114 13255 1
16256 3132 13256 1
16257 3150 13257 1
16258 3168 13258 1
16259 3186 13259 1
16260 3204 13260 1
16261 3222 13261 1
16262 3276 13262 1
16263 3294 13263 1
16264 3312 13264 1
16265 3348 13265 1
16266 3366 13266 1
16267 3384 13267 1
16268 3402 13268 1
16269 3420 13269 1
16270 3438 13270 1
16271 3456 13271 1
16272 3474 13272 1
16273 3510 13273 1
16274 3528 13274 1
16275 3546 13275 1
16276 3564 13276 1
16277 3582 13277 1
16278 3600 13278 1
16279 3618 13279 1
16280 3636 13280 1
16281 3654 13281 1
16282 3672 13282 1
16283 3690 13283 1
16284 3708 13284 1
16285 3744 13285 1
16286 3762 13286 1
16287 3780 13287 1
16288 3816 13288 1
16289 3834 13289 1
16290 3852 13290 1
16291 3870 13291 1
16292 3906 13292 1
16293 3924 13293 1
16294 3942 13294 1
16295 3978 13295 1
16296 3996 13296 1
16297 4014 13297 1
16298 4032 13298 1
16299 4050 13299 1
16300 4068 13300 1
16301 4086 13301 1
16302 4104 13302 1
16303 4122 13303 1
16304 4140 13304 1
16305 4158 13305 1
16306 4176 13306 1
16307 4194 13307 1
16308 4212 13308 1
16309 4230 13309 1
16310 4248 13310 1
16311 4266 13311 1
16312 4284 13312 1
16313 4302 13313 1
16314 4320 13314 1
16315 4338 13315 1
16316 4356 13316 1
16317 4374 13317 1
16318 4392 13318 1
16319 4410 13319 1
16320 4428 13320 1
16321 4464 13321 1
16322 4482 13322 1
16323 4500 13323 1
16324 4536 13324 1
16325 4554 13325 1
16326 4572 13326 1
16327 4590 13327 1
16328 4626 13328 1
16329 4644 13329 1
16330 4662 13330 1
16331 4698 13331 1
16332 4716 13332 1
16333 4734 13333 1
16334 4752 13334 1
16335 4770 13335 1
16336 4788 13336 1
16337 4806 13337 1
16338 4824 13338 1
16339 4842 13339 1
16340 4860 13340 1
16341 4878 13341 1
16342 4896 13342 1
16343 4914 13343 1
16344 4932 13344 1
16345 4950 13345 1
16346 4968 13346 1
16347 4986 13347 1
16348 5004 13348 1
16349 5022 13349 1
16350 5040 13350 1
16351 5058 13351 1
16352 5076 13352 1
16353 5094 13353 1
16354 5112 13354 1
16355 5130 13355 1
16356 5148 13356 1
16357 5166 13357 1
16358 5184 13358 1
16359 5202 13359 1
16360 5220 13360 1
16361 5238 13361 1
16362 5256 13362 1
16363 5274 13363 1
16364 5292 13364 1
16365 5310 13365 1
16366 5328 13366 1
16367 5346 13367 1
16368 5364 13368 1
16369 5382 13369 1
16370 5400 13370 1
16371 5418 13371 1
16372 5436 13372 1
16373 5454 13373 1
16374 5472 13374 1
16375 5490 13375 1
16376 5508 13376 1
16377 5526 13377 1
16378 5544 13378 1
16379 5562 13379 1
16380 5580 13380 1
16381 5598 13381 1
16382 5616 13382 1
16383 5634 13383 1
16384 5652 13384 1
16385 5670 13385 1
16386 5688 13386 1
16387 5706 13387 1
16388 5724 13388 1
16389 5742 13389 1
16390 5760 13390 1
16391 5778 13391 1
16392 5796 13392 1
16393 5814 13393 1
16394 5832 13394 1
16395 5850 13395 1
16396 5868 13396 1
16397 5904 13397 1
16398 5922 13398 1
16399 5940 13399 1
16400 5976 13400 1
16401 5994 13401 1
16402 6012 13402 1
16403 6030 13403 1
16404 6066 13404 1
16405 6084 13405 1
16406 6102 13406 1
16407 6138 13407 1
16408 6156 13408 1
16409 6174 13409 1
16410 6192 13410 1
16411 6210 13411 1
16412 6228 13412 1
16413 6246 13413 1
16414 6264 13414 1
16415 6282 13415 1
16416 6300 13416 1
16417 6318 13417 1
16418 6336 13418 1
16419 6354 13419 1
16420 6372 13420 1
16421 6390 13421 1
16422 6408 13422 1
16423 6426 13423 1
16424 6444 13424 1
16425 6462 13425 1
16426 6480 13426 1
16427 6498 13427 1
16428 6516 13428 1
16429 6534 13429 1
16430 6552 13430 1
16431 6588 13431 1
16432 6606 13432 1
16433 6624 13433 1
16434 6642 13434 1
16435 6660 13435 1
16436 6696 13436 1
16437 6714 13437 1
16438 6750 13438 1
16439 6768 13439 1
16440 6786 13440 1
16441 6804 13441 1
16442 6822 13442 1
16443 6840 13443 1
16444 6858 13444 1
16445 6876 13445 1
16446 6894 13446 1
16447 6912 13447 1
16448 6930 13448 1
16449 6948 13449 1
16450 6984 13450 1
16451 7002 13451 1
16452 7020 13452 1
16453 7056 13453 1
16454 7074 13454 1
16455 7092 13455 1
16456 7110 13456 1
16457 7146 13457 1
16458 7164 13458 1
16459 7182 13459 1
16460 7236 13460 1
16461 7254 13461 1
16462 7272 13462 1
16463 7308 13463 1
16464 7326 13464 1
16465 7344 13465 1
16466 7362 13466 1
16467 7398 13467 1
16468 7416 13468 1
16469 7434 13469 1
16470 7470 13470 1
16471 7488 13471 1
16472 7506 13472 1
16473 7524 13473 1
16474 7542 13474 1
16475 7560 13475 1
16476 7578 13476 1
16477 7596 13477 1
16478 7614 13478 1
16479 7632 13479 1
16480 7650 13480 1
16481 7668 13481 1
16482 7686 13482 1
16483 7704 13483 1
16484 7722 13484 1
16485 7740 13485 1
16486 7758 13486 1
16487 7776 13487 1
16488 7794 13488 1
16489 7812 13489 1
16490 7830 13490 1
16491 7848 13491 1
16492 7866 13492 1
16493 7884 13493 1
16494 7902 13494 1
16495 7920 13495 1
16496 7956 13496 1
16497 7974 13497 1
16498 7992 13498 1
16499 8028 13499 1
16500 8046 13500 1
16501 8064 13501 1
16502 8082 13502 1
16503 8118 13503 1
16504 8136 13504 1
16505 8154 13505 1
16506 8190 13506 1
16507 8208 13507 1
16508 8226 13508 1
16509 8244 13509 1
16510 8262 13510 1
16511 8280 13511 1
16512 8298 13512 1
16513 8316 13513 1
16514 8334 13514 1
16515 8352 13515 1
16516 8370 13516 1
16517 8388 13517 1
16518 8406 13518 1
16519 8424 13519 1
16520 8442 13520 1
16521 8460 13521 1
16522 8496 13522 1
16523 8514 13523 1
16524 8532 13524 1
16525 8550 13525 1
16526 8568 13526 1
16527 8586 13527 1
16528 8604 13528 1
16529 8622 13529 1
16530 8640 13530 1
16531 8658 13531 1
16532 8676 13532 1
16533 8694 13533 1
16534 8712 13534 1
16535 8748 13535 1
16536 8766 13536 1
16537 8784 13537 1
16538 8802 13538 1
16539 8820 13539 1
16540 8838 13540 1
16541 8856 13541 1
16542 8874 13542 1
16543 8910 13543 1
16544 8928 13544 1
16545 8946 13545 1
16546 8964 13546 1
16547 8982 13547 1
16548 9000 13548 1
16549 9018 13549 1
16550 9036 13550 1
16551 9054 13551 1
16552 9072 13552 1
16553 9090 13553 1
16554 9108 13554 1
16555 9144 13555 1
16556 9162 13556 1
16557 9180 13557 1
16558 9216 13558 1
16559 9234 13559 1
16560 9252 13560 1
16561 9270 13561 1
16562 9306 13562 1
16563 9324 13563 1
16564 9342 13564 1
16565 9378 13565 1
16566 9396 13566 1
16567 9414 13567 1
16568 9432 13568 1
16569 9450 13569 1
16570 9468 13570 1
16571 9486 13571 1
16572 9504 13572 1
16573 9522 13573 1
16574 9540 13574 1
16575 9558 13575 1
16576 9576 13576 1
16577 9594 13577 1
16578 9612 13578 1
16579 9630 13579 1
16580 9648 13580 1
16581 9666 13581 1
16582 9684 13582 1
16583 9702 13583 1
16584 9720 13584 1
16585 9738 13585 1
16586 9756 13586 1
16587 9774 13587 1
16588 9792 13588 1
16589 9810 13589 1
16590 9828 13590 1
16591 9864 13591 1
16592 9882 13592 1
16593 9900 13593 1
16594 9936 13594 1
16595 9954 13595 1
16596 9972 13596 1
16597 9990 13597 1
16598 10026 13598 1
16599 10044 13599 1
16600 10062 13600 1
16601 10098 13601 1
16602 10116 13602 1
16603 10134 13603 1
16604 10152 13604 1
16605 10170 13605 1
16606 10188 13606 1
16607 10206 13607 1
16608 10224 13608 1
16609 10242 13609 1
16610 10260 13610 1
16611 10278 13611 1
16612 10296 13612 1
16613 10314 13613 1
16614 10332 13614 1
16615 10350 13615 1
16616 10368 13616 1
16617 10386 13617 1
16618 10404 13618 1
16619 10422 13619 1
16620 10440 13620 1
16621 10458 13621 1
16622 10476 13622 1
16623 10494 13623 1
16624 10512 13624 1
16625 10530 13625 1
16626 10548 13626 1
16627 10566 13627 1
16628 10584 13628 1
16629 10602 13629 1
16630 10620 13630 1
16631 10638 13631 1
16632 10656 13632 1
16633 10674 13633 1
16634 10692 13634 1
16635 10710 13635 1
16636 10728 13636 1
16637 10746 13637 1
16638 10764 13638 1
16639 10782 13639 1
16640 10800 13640 1
<@TRIPOS>
